
     RDKit          3D

 48 47  0  0  0  0  0  0  0  0999 V2000
   -5.0151    1.7664   -1.0382 O   0  0  0  0  0  0  0  0  0  0  0  0
   -4.3194    1.3695    0.0803 C   0  0  0  0  0  0  0  0  0  0  0  0
   -3.4510    0.2073   -0.3142 C   0  0  2  0  0  0  0  0  0  0  0  0
   -4.1627   -0.9803   -0.8348 C   0  0  1  0  0  0  0  0  0  0  0  0
   -3.4352   -1.6323   -1.8221 O   0  0  0  0  0  0  0  0  0  0  0  0
   -4.4981   -1.9330    0.2696 C   0  0  2  0  0  0  0  0  0  0  0  0
   -5.4080   -1.4422    1.1692 O   0  0  0  0  0  0  0  0  0  0  0  0
   -3.2253   -2.3447    0.9448 C   0  0  0  0  0  0  0  0  0  0  0  0
   -2.4739   -0.5417    1.1972 Se  0  0  0  0  0  3  0  0  0  0  0  0
   -0.5893   -0.6235    0.7173 C   0  0  0  0  0  0  0  0  0  0  0  0
   -0.1073    0.7255    0.2851 C   0  0  1  0  0  0  0  0  0  0  0  0
   -0.2568    1.6258    1.3053 O   0  0  0  0  0  0  0  0  0  0  0  0
    1.2824    0.6416   -0.2984 C   0  0  1  0  0  0  0  0  0  0  0  0
    1.6147    1.8974   -0.8020 O   0  0  0  0  0  0  0  0  0  0  0  0
    2.3061    0.0348    0.5817 C   0  0  2  0  0  0  0  0  0  0  0  0
    2.6589    0.7337    1.7073 O   0  0  0  0  0  0  0  0  0  0  0  0
    3.5224   -0.3593   -0.2517 C   0  0  2  0  0  0  0  0  0  0  0  0
    4.2698   -1.1949    0.6243 O   0  0  0  0  0  0  0  0  0  0  0  0
    4.3184    0.8842   -0.5277 C   0  0  1  0  0  0  0  0  0  0  0  0
    4.5056    1.5243    0.6849 O   0  0  0  0  0  0  0  0  0  0  0  0
    5.6547    0.5510   -1.1831 C   0  0  0  0  0  0  0  0  0  0  0  0
    6.3424   -0.2847   -0.3073 O   0  0  0  0  0  0  0  0  0  0  0  0
    0.0000    0.0000    0.0000 Cl  0  0  0  0  0  0  0  0  0  0  0  0
   -4.5038    2.4444   -1.5300 H   0  0  0  0  0  0  0  0  0  0  0  0
   -3.6037    2.1962    0.3575 H   0  0  0  0  0  0  0  0  0  0  0  0
   -4.9377    1.1391    0.9587 H   0  0  0  0  0  0  0  0  0  0  0  0
   -2.7468    0.5529   -1.1149 H   0  0  0  0  0  0  0  0  0  0  0  0
   -5.1320   -0.6379   -1.2550 H   0  0  0  0  0  0  0  0  0  0  0  0
   -3.2653   -0.9961   -2.5731 H   0  0  0  0  0  0  0  0  0  0  0  0
   -4.9183   -2.8285   -0.2162 H   0  0  0  0  0  0  0  0  0  0  0  0
   -4.9170   -1.0592    1.9413 H   0  0  0  0  0  0  0  0  0  0  0  0
   -3.4623   -2.8086    1.9127 H   0  0  0  0  0  0  0  0  0  0  0  0
   -2.5654   -2.9321    0.2963 H   0  0  0  0  0  0  0  0  0  0  0  0
   -0.4062   -1.3442   -0.0878 H   0  0  0  0  0  0  0  0  0  0  0  0
   -0.0183   -0.9113    1.6430 H   0  0  0  0  0  0  0  0  0  0  0  0
   -0.8044    1.0852   -0.5375 H   0  0  0  0  0  0  0  0  0  0  0  0
   -0.2586    1.1994    2.2069 H   0  0  0  0  0  0  0  0  0  0  0  0
    1.2190   -0.0172   -1.2176 H   0  0  0  0  0  0  0  0  0  0  0  0
    1.3319    2.0583   -1.7248 H   0  0  0  0  0  0  0  0  0  0  0  0
    1.8656   -0.9427    1.0004 H   0  0  0  0  0  0  0  0  0  0  0  0
    2.3993    1.6788    1.7034 H   0  0  0  0  0  0  0  0  0  0  0  0
    3.2590   -0.9549   -1.1285 H   0  0  0  0  0  0  0  0  0  0  0  0
    4.1387   -2.1546    0.4038 H   0  0  0  0  0  0  0  0  0  0  0  0
    3.7781    1.5055   -1.2540 H   0  0  0  0  0  0  0  0  0  0  0  0
    5.3215    1.2437    1.1517 H   0  0  0  0  0  0  0  0  0  0  0  0
    6.2635    1.4748   -1.2611 H   0  0  0  0  0  0  0  0  0  0  0  0
    5.5349    0.1365   -2.1815 H   0  0  0  0  0  0  0  0  0  0  0  0
    6.8947    0.2475    0.3187 H   0  0  0  0  0  0  0  0  0  0  0  0
  1  2  1  0
  2  3  1  0
  3  4  1  0
  4  5  1  0
  4  6  1  0
  6  7  1  0
  6  8  1  0
  8  9  1  0
  9 10  1  0
 10 11  1  0
 11 12  1  0
 11 13  1  0
 13 14  1  0
 13 15  1  0
 15 16  1  0
 15 17  1  0
 17 18  1  0
 17 19  1  0
 19 20  1  0
 19 21  1  0
 21 22  1  0
  9  3  1  0
  1 24  1  0
  2 25  1  0
  2 26  1  0
  3 27  1  6
  4 28  1  6
  5 29  1  0
  6 30  1  6
  7 31  1  0
  8 32  1  0
  8 33  1  0
 10 34  1  0
 10 35  1  0
 11 36  1  6
 12 37  1  0
 13 38  1  6
 14 39  1  0
 15 40  1  1
 16 41  1  0
 17 42  1  6
 18 43  1  0
 19 44  1  6
 20 45  1  0
 21 46  1  0
 21 47  1  0
 22 48  1  0
M  CHG  2   9   1  23  -1
M  END
