
     RDKit          3D

 45 46  0  0  0  0  0  0  0  0999 V2000
    2.0028   -2.0730    1.1213 O   0  0  0  0  0  0  0  0  0  0  0  0
    2.7204   -1.9317   -0.1034 C   0  0  0  0  0  0  0  0  0  0  0  0
    2.1175   -0.8566   -1.0571 C   0  0  1  0  0  0  0  0  0  0  0  0
    0.7091   -1.1298   -1.4426 N   0  0  0  0  0  0  0  0  0  0  0  0
   -0.2855   -0.8055   -0.3974 C   0  0  1  0  0  0  0  0  0  0  0  0
   -1.2101    0.3056   -0.9188 C   0  0  0  0  0  0  0  0  0  0  0  0
   -2.2473    0.7564    0.1357 C   0  0  2  0  0  0  0  0  0  0  0  0
   -3.4560    1.0833   -0.5850 O   0  0  0  0  0  0  0  0  0  0  0  0
   -1.7981    2.0322    0.8772 C   0  0  0  0  0  0  0  0  0  0  0  0
   -0.5615    1.8583    1.5559 O   0  0  0  0  0  0  0  0  0  0  0  0
   -2.5841   -0.3684    1.1472 C   0  0  1  0  0  0  0  0  0  0  0  0
   -3.9105   -0.1459    1.6674 O   0  0  0  0  0  0  0  0  0  0  0  0
   -2.5429   -1.7310    0.4551 C   0  0  2  0  0  0  0  0  0  0  0  0
   -3.0095   -2.7401    1.3667 O   0  0  0  0  0  0  0  0  0  0  0  0
   -1.1203   -2.0658   -0.0243 C   0  0  1  0  0  0  0  0  0  0  0  0
   -1.2255   -2.9695   -1.1444 O   0  0  0  0  0  0  0  0  0  0  0  0
    2.3685    0.6036   -0.6915 C   0  0  0  0  0  0  0  0  0  0  0  0
    2.2451    1.5862   -1.6914 C   0  0  0  0  0  0  0  0  0  0  0  0
    2.4631    2.9360   -1.4079 C   0  0  0  0  0  0  0  0  0  0  0  0
    2.8107    3.3282   -0.1186 C   0  0  0  0  0  0  0  0  0  0  0  0
    2.9352    2.3717    0.8858 C   0  0  0  0  0  0  0  0  0  0  0  0
    2.7136    1.0204    0.6027 C   0  0  0  0  0  0  0  0  0  0  0  0
    2.4248   -2.7996    1.6133 H   0  0  0  0  0  0  0  0  0  0  0  0
    2.7037   -2.9074   -0.6030 H   0  0  0  0  0  0  0  0  0  0  0  0
    3.7634   -1.6954    0.1329 H   0  0  0  0  0  0  0  0  0  0  0  0
    2.6910   -0.9986   -1.9854 H   0  0  0  0  0  0  0  0  0  0  0  0
    0.6456   -2.1381   -1.6153 H   0  0  0  0  0  0  0  0  0  0  0  0
    0.1851   -0.4458    0.5227 H   0  0  0  0  0  0  0  0  0  0  0  0
   -1.7322   -0.0511   -1.8184 H   0  0  0  0  0  0  0  0  0  0  0  0
   -0.6295    1.1727   -1.2554 H   0  0  0  0  0  0  0  0  0  0  0  0
   -4.1712    1.0011    0.0843 H   0  0  0  0  0  0  0  0  0  0  0  0
   -2.5523    2.3270    1.6157 H   0  0  0  0  0  0  0  0  0  0  0  0
   -1.7073    2.8778    0.1843 H   0  0  0  0  0  0  0  0  0  0  0  0
    0.1514    2.0175    0.9080 H   0  0  0  0  0  0  0  0  0  0  0  0
   -1.9002   -0.3711    2.0045 H   0  0  0  0  0  0  0  0  0  0  0  0
   -4.1441   -0.9921    2.1041 H   0  0  0  0  0  0  0  0  0  0  0  0
   -3.2548   -1.7483   -0.3803 H   0  0  0  0  0  0  0  0  0  0  0  0
   -2.8757   -3.5919    0.9079 H   0  0  0  0  0  0  0  0  0  0  0  0
   -0.5876   -2.6320    0.7476 H   0  0  0  0  0  0  0  0  0  0  0  0
   -1.4503   -2.4221   -1.9219 H   0  0  0  0  0  0  0  0  0  0  0  0
    1.9644    1.2951   -2.7023 H   0  0  0  0  0  0  0  0  0  0  0  0
    2.3622    3.6791   -2.1949 H   0  0  0  0  0  0  0  0  0  0  0  0
    2.9829    4.3778    0.1049 H   0  0  0  0  0  0  0  0  0  0  0  0
    3.1976    2.6758    1.8964 H   0  0  0  0  0  0  0  0  0  0  0  0
    2.7981    0.3051    1.4177 H   0  0  0  0  0  0  0  0  0  0  0  0
  1  2  1  0
  2  3  1  0
  3  4  1  0
  4  5  1  0
  5  6  1  0
  6  7  1  0
  7  8  1  6
  7  9  1  0
  9 10  1  0
  7 11  1  0
 11 12  1  0
 11 13  1  0
 13 14  1  0
 13 15  1  0
 15 16  1  0
  3 17  1  0
 17 18  2  0
 18 19  1  0
 19 20  2  0
 20 21  1  0
 21 22  2  0
 15  5  1  0
 22 17  1  0
  1 23  1  0
  2 24  1  0
  2 25  1  0
  3 26  1  6
  4 27  1  0
  5 28  1  1
  6 29  1  0
  6 30  1  0
  8 31  1  0
  9 32  1  0
  9 33  1  0
 10 34  1  0
 11 35  1  1
 12 36  1  0
 13 37  1  6
 14 38  1  0
 15 39  1  1
 16 40  1  0
 18 41  1  0
 19 42  1  0
 20 43  1  0
 21 44  1  0
 22 45  1  0
M  END
