
     RDKit          3D

 36 36  0  0  0  0  0  0  0  0999 V2000
    4.0120    0.3225   -0.9263 O   0  0  0  0  0  0  0  0  0  0  0  0
    2.7730   -0.2493   -0.5341 C   0  0  0  0  0  0  0  0  0  0  0  0
    2.1260    0.6021    0.4566 N   0  0  0  0  0  0  0  0  0  0  0  0
    2.9026    0.5818    1.6880 C   0  0  0  0  0  0  0  0  0  0  0  0
    2.4754    1.6476    2.5149 O   0  0  0  0  0  0  0  0  0  0  0  0
    0.7031    0.2456    0.7061 C   0  0  1  0  0  0  0  0  0  0  0  0
   -0.1863    0.9099   -0.3771 C   0  0  0  0  0  0  0  0  0  0  0  0
   -1.6348    0.3649   -0.4037 C   0  0  2  0  0  0  0  0  0  0  0  0
   -1.6714   -0.6965   -1.3938 O   0  0  0  0  0  0  0  0  0  0  0  0
   -2.6223    1.4613   -0.8596 C   0  0  0  0  0  0  0  0  0  0  0  0
   -2.2467    1.9798   -2.1359 O   0  0  0  0  0  0  0  0  0  0  0  0
   -2.0307   -0.2397    0.9559 C   0  0  1  0  0  0  0  0  0  0  0  0
   -3.3930   -0.6999    0.9379 O   0  0  0  0  0  0  0  0  0  0  0  0
   -1.1141   -1.4183    1.3643 C   0  0  2  0  0  0  0  0  0  0  0  0
   -1.1553   -1.5402    2.7924 O   0  0  0  0  0  0  0  0  0  0  0  0
    0.3470   -1.2557    0.8853 C   0  0  1  0  0  0  0  0  0  0  0  0
    0.5204   -1.9755   -0.3488 O   0  0  0  0  0  0  0  0  0  0  0  0
    4.3311   -0.2109   -1.6722 H   0  0  0  0  0  0  0  0  0  0  0  0
    2.1726   -0.3253   -1.4455 H   0  0  0  0  0  0  0  0  0  0  0  0
    2.9722   -1.2588   -0.1568 H   0  0  0  0  0  0  0  0  0  0  0  0
    3.9696    0.7493    1.5050 H   0  0  0  0  0  0  0  0  0  0  0  0
    2.8079   -0.3582    2.2419 H   0  0  0  0  0  0  0  0  0  0  0  0
    2.4211    2.3931    1.8924 H   0  0  0  0  0  0  0  0  0  0  0  0
    0.4126    0.7388    1.6446 H   0  0  0  0  0  0  0  0  0  0  0  0
   -0.1949    1.9889   -0.1708 H   0  0  0  0  0  0  0  0  0  0  0  0
    0.2568    0.7893   -1.3732 H   0  0  0  0  0  0  0  0  0  0  0  0
   -2.6084   -0.8262   -1.6414 H   0  0  0  0  0  0  0  0  0  0  0  0
   -3.6360    1.0627   -0.9696 H   0  0  0  0  0  0  0  0  0  0  0  0
   -2.6530    2.2924   -0.1478 H   0  0  0  0  0  0  0  0  0  0  0  0
   -1.8897    1.2411   -2.6625 H   0  0  0  0  0  0  0  0  0  0  0  0
   -1.9982    0.5425    1.7246 H   0  0  0  0  0  0  0  0  0  0  0  0
   -3.4257   -1.5519    0.4671 H   0  0  0  0  0  0  0  0  0  0  0  0
   -1.5145   -2.3623    0.9746 H   0  0  0  0  0  0  0  0  0  0  0  0
   -2.0953   -1.5749    3.0514 H   0  0  0  0  0  0  0  0  0  0  0  0
    1.0206   -1.7168    1.6155 H   0  0  0  0  0  0  0  0  0  0  0  0
   -0.1539   -1.6530   -0.9843 H   0  0  0  0  0  0  0  0  0  0  0  0
  1  2  1  0
  2  3  1  0
  3  4  1  0
  4  5  1  0
  3  6  1  0
  6  7  1  0
  7  8  1  0
  8  9  1  6
  8 10  1  0
 10 11  1  0
  8 12  1  0
 12 13  1  0
 12 14  1  0
 14 15  1  0
 14 16  1  0
 16 17  1  0
 16  6  1  0
  1 18  1  0
  2 19  1  0
  2 20  1  0
  4 21  1  0
  4 22  1  0
  5 23  1  0
  6 24  1  1
  7 25  1  0
  7 26  1  0
  9 27  1  0
 10 28  1  0
 10 29  1  0
 11 30  1  0
 12 31  1  1
 13 32  1  0
 14 33  1  6
 15 34  1  0
 16 35  1  1
 17 36  1  0
M  END
