
     RDKit          3D

 39 39  0  0  0  0  0  0  0  0999 V2000
   -1.7510   -0.2665   -2.5503 O   0  0  0  0  0  0  0  0  0  0  0  0
   -2.7776    0.3264   -1.7510 C   0  0  0  0  0  0  0  0  0  0  0  0
   -2.7810   -0.2652   -0.3228 C   0  0  0  0  0  0  0  0  0  0  0  0
   -4.1557   -0.0006    0.3294 C   0  0  0  0  0  0  0  0  0  0  0  0
   -4.3340    1.3989    0.5491 O   0  0  0  0  0  0  0  0  0  0  0  0
   -1.7611    0.3538    0.5765 N   0  0  0  0  0  0  0  0  0  0  0  0
   -0.3680    0.0433    0.1933 C   0  0  1  0  0  0  0  0  0  0  0  0
    0.5689    0.9514    1.0069 C   0  0  0  0  0  0  0  0  0  0  0  0
    2.0412    0.7907    0.5687 C   0  0  2  0  0  0  0  0  0  0  0  0
    2.8414    0.8993    1.7646 O   0  0  0  0  0  0  0  0  0  0  0  0
    2.4845    1.9279   -0.3731 C   0  0  0  0  0  0  0  0  0  0  0  0
    3.8256    1.6924   -0.8252 O   0  0  0  0  0  0  0  0  0  0  0  0
    2.3190   -0.5859   -0.0887 C   0  0  1  0  0  0  0  0  0  0  0  0
    3.7218   -0.9018   -0.0181 O   0  0  0  0  0  0  0  0  0  0  0  0
    1.5160   -1.6709    0.6241 C   0  0  2  0  0  0  0  0  0  0  0  0
    1.8793   -2.9664    0.1258 O   0  0  0  0  0  0  0  0  0  0  0  0
    0.0050   -1.4531    0.4170 C   0  0  1  0  0  0  0  0  0  0  0  0
   -0.6908   -1.9710    1.5687 O   0  0  0  0  0  0  0  0  0  0  0  0
   -1.8333    0.1288   -3.4361 H   0  0  0  0  0  0  0  0  0  0  0  0
   -2.6251    1.4112   -1.7357 H   0  0  0  0  0  0  0  0  0  0  0  0
   -3.7300    0.1218   -2.2517 H   0  0  0  0  0  0  0  0  0  0  0  0
   -2.6308   -1.3495   -0.3757 H   0  0  0  0  0  0  0  0  0  0  0  0
   -4.2302   -0.5078    1.2981 H   0  0  0  0  0  0  0  0  0  0  0  0
   -4.9755   -0.3597   -0.3009 H   0  0  0  0  0  0  0  0  0  0  0  0
   -3.4601    1.7061    0.8688 H   0  0  0  0  0  0  0  0  0  0  0  0
   -1.8794   -0.0958    1.4960 H   0  0  0  0  0  0  0  0  0  0  0  0
   -0.1979    0.3081   -0.8545 H   0  0  0  0  0  0  0  0  0  0  0  0
    0.2640    2.0017    0.9073 H   0  0  0  0  0  0  0  0  0  0  0  0
    0.4673    0.7169    2.0764 H   0  0  0  0  0  0  0  0  0  0  0  0
    3.7198    0.5369    1.5334 H   0  0  0  0  0  0  0  0  0  0  0  0
    1.8375    1.9901   -1.2537 H   0  0  0  0  0  0  0  0  0  0  0  0
    2.4777    2.8891    0.1517 H   0  0  0  0  0  0  0  0  0  0  0  0
    4.1180    2.5184   -1.2543 H   0  0  0  0  0  0  0  0  0  0  0  0
    2.0532   -0.5857   -1.1533 H   0  0  0  0  0  0  0  0  0  0  0  0
    4.1696   -0.1600   -0.4848 H   0  0  0  0  0  0  0  0  0  0  0  0
    1.7661   -1.6890    1.6919 H   0  0  0  0  0  0  0  0  0  0  0  0
    2.8575   -2.9448    0.0734 H   0  0  0  0  0  0  0  0  0  0  0  0
   -0.3521   -2.0393   -0.4384 H   0  0  0  0  0  0  0  0  0  0  0  0
   -0.3997   -2.9003    1.6474 H   0  0  0  0  0  0  0  0  0  0  0  0
  1  2  1  0
  2  3  1  0
  3  4  1  0
  4  5  1  0
  3  6  1  0
  6  7  1  0
  7  8  1  0
  8  9  1  0
  9 10  1  1
  9 11  1  0
 11 12  1  0
  9 13  1  0
 13 14  1  0
 13 15  1  0
 15 16  1  0
 15 17  1  0
 17 18  1  0
 17  7  1  0
  1 19  1  0
  2 20  1  0
  2 21  1  0
  3 22  1  0
  4 23  1  0
  4 24  1  0
  5 25  1  0
  6 26  1  0
  7 27  1  6
  8 28  1  0
  8 29  1  0
 10 30  1  0
 11 31  1  0
 11 32  1  0
 12 33  1  0
 13 34  1  6
 14 35  1  0
 15 36  1  1
 16 37  1  0
 17 38  1  6
 18 39  1  0
M  END
