
     RDKit          3D

 28 28  0  0  0  0  0  0  0  0999 V2000
   -2.8402    0.4377    0.5739 N   0  0  0  0  0  0  0  0  0  0  0  0
   -1.5043    0.3536   -0.0510 C   0  0  1  0  0  0  0  0  0  0  0  0
   -0.4528    0.7965    0.9795 C   0  0  0  0  0  0  0  0  0  0  0  0
    0.9869    0.5961    0.4767 C   0  0  2  0  0  0  0  0  0  0  0  0
    1.8781    0.8084    1.5989 O   0  0  0  0  0  0  0  0  0  0  0  0
    1.3658    1.6632   -0.5685 C   0  0  0  0  0  0  0  0  0  0  0  0
    2.7233    1.4865   -0.9775 O   0  0  0  0  0  0  0  0  0  0  0  0
    1.2109   -0.8562   -0.0194 C   0  0  1  0  0  0  0  0  0  0  0  0
    1.1996   -1.7228    1.1374 O   0  0  0  0  0  0  0  0  0  0  0  0
    0.1617   -1.3106   -1.0527 C   0  0  2  0  0  0  0  0  0  0  0  0
    0.3017   -0.6185   -2.2907 O   0  0  0  0  0  0  0  0  0  0  0  0
   -1.2619   -1.1039   -0.5102 C   0  0  1  0  0  0  0  0  0  0  0  0
   -1.4747   -1.9723    0.6175 O   0  0  0  0  0  0  0  0  0  0  0  0
   -2.9895    1.3865    0.9240 H   0  0  0  0  0  0  0  0  0  0  0  0
   -3.5545    0.3006   -0.1449 H   0  0  0  0  0  0  0  0  0  0  0  0
   -1.4810    1.0252   -0.9164 H   0  0  0  0  0  0  0  0  0  0  0  0
   -0.6074    1.8497    1.2511 H   0  0  0  0  0  0  0  0  0  0  0  0
   -0.5847    0.2434    1.9205 H   0  0  0  0  0  0  0  0  0  0  0  0
    1.9076   -0.0560    2.0638 H   0  0  0  0  0  0  0  0  0  0  0  0
    0.7347    1.6418   -1.4587 H   0  0  0  0  0  0  0  0  0  0  0  0
    1.2949    2.6675   -0.1353 H   0  0  0  0  0  0  0  0  0  0  0  0
    3.2349    1.4848   -0.1428 H   0  0  0  0  0  0  0  0  0  0  0  0
    2.2167   -0.9490   -0.4436 H   0  0  0  0  0  0  0  0  0  0  0  0
    0.2802   -2.0582    1.2431 H   0  0  0  0  0  0  0  0  0  0  0  0
    0.3038   -2.3809   -1.2470 H   0  0  0  0  0  0  0  0  0  0  0  0
    1.2205   -0.7409   -2.5980 H   0  0  0  0  0  0  0  0  0  0  0  0
   -1.9951   -1.3723   -1.2807 H   0  0  0  0  0  0  0  0  0  0  0  0
   -2.2751   -1.5999    1.0511 H   0  0  0  0  0  0  0  0  0  0  0  0
  1  2  1  0
  2  3  1  0
  3  4  1  0
  4  5  1  1
  4  6  1  0
  6  7  1  0
  4  8  1  0
  8  9  1  0
  8 10  1  0
 10 11  1  0
 10 12  1  0
 12 13  1  0
 12  2  1  0
  1 14  1  0
  1 15  1  0
  2 16  1  6
  3 17  1  0
  3 18  1  0
  5 19  1  0
  6 20  1  0
  6 21  1  0
  7 22  1  0
  8 23  1  6
  9 24  1  0
 10 25  1  6
 11 26  1  0
 12 27  1  6
 13 28  1  0
M  END
