
     RDKit          3D

 48 47  0  0  0  0  0  0  0  0999 V2000
    3.0710   -1.2606    1.2063 O   0  0  0  0  0  0  0  0  0  0  0  0
    2.9449   -1.9069   -0.0584 C   0  0  0  0  0  0  0  0  0  0  0  0
    3.5921   -1.0989   -1.1853 C   0  0  2  0  0  0  0  0  0  0  0  0
    4.9385   -0.4552   -0.7927 C   0  0  1  0  0  0  0  0  0  0  0  0
    5.8569   -0.5180   -1.8937 O   0  0  0  0  0  0  0  0  0  0  0  0
    4.6662    1.0131   -0.4594 C   0  0  2  0  0  0  0  0  0  0  0  0
    4.0538    1.2091    0.8141 O   0  0  0  0  0  0  0  0  0  0  0  0
    3.7711    1.5275   -1.5808 C   0  0  0  0  0  0  0  0  0  0  0  0
    2.5469    0.2105   -2.0034 S   0  0  0  0  0  0  0  0  0  0  0  0
    1.3305    0.6575   -0.7102 C   0  0  0  0  0  0  0  0  0  0  0  0
   -0.0940    0.2152   -1.1077 C   0  0  1  0  0  0  0  0  0  0  0  0
   -0.1510   -1.1932   -1.3666 O   0  0  0  0  0  0  0  0  0  0  0  0
   -1.1066    0.5922   -0.0002 C   0  0  1  0  0  0  0  0  0  0  0  0
   -1.2469    2.0190    0.0007 O   0  0  0  0  0  0  0  0  0  0  0  0
   -2.4780   -0.1291   -0.1463 C   0  0  2  0  0  0  0  0  0  0  0  0
   -2.9510   -0.1415   -1.5003 O   0  0  0  0  0  0  0  0  0  0  0  0
   -3.5725    0.4716    0.7607 C   0  0  2  0  0  0  0  0  0  0  0  0
   -3.1086    0.4547    2.1186 O   0  0  0  0  0  0  0  0  0  0  0  0
   -4.9514   -0.2285    0.5971 C   0  0  1  0  0  0  0  0  0  0  0  0
   -4.8376   -1.6500    0.4566 O   0  0  0  0  0  0  0  0  0  0  0  0
   -5.9161    0.0424    1.7583 C   0  0  0  0  0  0  0  0  0  0  0  0
   -5.8953    1.4107    2.1516 O   0  0  0  0  0  0  0  0  0  0  0  0
    0.0000    0.0000    0.0000 Cl  0  0  0  0  0  0  0  0  0  0  0  0
    2.5821   -1.8099    1.8491 H   0  0  0  0  0  0  0  0  0  0  0  0
    1.8929   -2.1249   -0.2504 H   0  0  0  0  0  0  0  0  0  0  0  0
    3.4672   -2.8661    0.0322 H   0  0  0  0  0  0  0  0  0  0  0  0
    3.7591   -1.8003   -2.0130 H   0  0  0  0  0  0  0  0  0  0  0  0
    5.4084   -0.9766    0.0481 H   0  0  0  0  0  0  0  0  0  0  0  0
    6.0369   -1.4554   -2.0788 H   0  0  0  0  0  0  0  0  0  0  0  0
    5.5964    1.5916   -0.4539 H   0  0  0  0  0  0  0  0  0  0  0  0
    3.6815    0.3524    1.1137 H   0  0  0  0  0  0  0  0  0  0  0  0
    4.3568    1.6828   -2.4934 H   0  0  0  0  0  0  0  0  0  0  0  0
    3.2557    2.4596   -1.3367 H   0  0  0  0  0  0  0  0  0  0  0  0
    1.6056    0.2517    0.2574 H   0  0  0  0  0  0  0  0  0  0  0  0
    1.3293    1.7482   -0.6157 H   0  0  0  0  0  0  0  0  0  0  0  0
   -0.3713    0.7278   -2.0382 H   0  0  0  0  0  0  0  0  0  0  0  0
    0.4520   -1.3464   -2.1194 H   0  0  0  0  0  0  0  0  0  0  0  0
   -0.6871    0.3118    0.9749 H   0  0  0  0  0  0  0  0  0  0  0  0
   -1.6459    2.2570    0.8580 H   0  0  0  0  0  0  0  0  0  0  0  0
   -2.3161   -1.1760    0.1412 H   0  0  0  0  0  0  0  0  0  0  0  0
   -2.2666   -0.6112   -2.0154 H   0  0  0  0  0  0  0  0  0  0  0  0
   -3.7241    1.5255    0.4949 H   0  0  0  0  0  0  0  0  0  0  0  0
   -3.7874    0.9387    2.6310 H   0  0  0  0  0  0  0  0  0  0  0  0
   -5.4097    0.1458   -0.3273 H   0  0  0  0  0  0  0  0  0  0  0  0
   -4.4363   -1.7994   -0.4204 H   0  0  0  0  0  0  0  0  0  0  0  0
   -6.9358   -0.2306    1.4637 H   0  0  0  0  0  0  0  0  0  0  0  0
   -5.6596   -0.5726    2.6285 H   0  0  0  0  0  0  0  0  0  0  0  0
   -6.6468    1.5349    2.7595 H   0  0  0  0  0  0  0  0  0  0  0  0
  1  2  1  0
  2  3  1  0
  3  4  1  0
  4  5  1  0
  4  6  1  0
  6  7  1  0
  6  8  1  0
  8  9  1  0
  9 10  1  0
 10 11  1  0
 11 12  1  0
 11 13  1  0
 13 14  1  0
 13 15  1  0
 15 16  1  0
 15 17  1  0
 17 18  1  0
 17 19  1  0
 19 20  1  0
 19 21  1  0
 21 22  1  0
  9  3  1  0
  1 24  1  0
  2 25  1  0
  2 26  1  0
  3 27  1  6
  4 28  1  1
  5 29  1  0
  6 30  1  1
  7 31  1  0
  8 32  1  0
  8 33  1  0
 10 34  1  0
 10 35  1  0
 11 36  1  6
 12 37  1  0
 13 38  1  1
 14 39  1  0
 15 40  1  1
 16 41  1  0
 17 42  1  6
 18 43  1  0
 19 44  1  6
 20 45  1  0
 21 46  1  0
 21 47  1  0
 22 48  1  0
M  CHG  2   9   1  23  -1
M  END
