
     RDKit          3D

 44 43  0  0  0  0  0  0  0  0999 V2000
    4.6398   -1.9826   -1.1740 O   0  0  0  0  0  0  0  0  0  0  0  0
    4.2486   -0.7293   -0.6162 C   0  0  0  0  0  0  0  0  0  0  0  0
    3.1560   -0.9575    0.4332 C   0  0  1  0  0  0  0  0  0  0  0  0
    3.7116   -1.8469    1.4241 O   0  0  0  0  0  0  0  0  0  0  0  0
    2.6612    0.3202    1.1326 C   0  0  1  0  0  0  0  0  0  0  0  0
    3.7364    0.8820    1.9236 O   0  0  0  0  0  0  0  0  0  0  0  0
    2.1073    1.4228    0.2137 C   0  0  2  0  0  0  0  0  0  0  0  0
    1.6417    2.5233    1.0238 O   0  0  0  0  0  0  0  0  0  0  0  0
    0.9617    1.0040   -0.7274 C   0  0  2  0  0  0  0  0  0  0  0  0
    0.6490    2.1532   -1.5385 O   0  0  0  0  0  0  0  0  0  0  0  0
   -0.3155    0.5747    0.0113 C   0  0  0  0  0  0  0  0  0  0  0  0
   -1.2596   -0.6619   -0.9671 S   0  0  0  0  0  0  0  0  0  0  0  0
   -2.1912    0.5062   -2.0226 C   0  0  0  0  0  0  0  0  0  0  0  0
   -3.4367    0.9425   -1.2649 C   0  0  1  0  0  0  0  0  0  0  0  0
   -4.4738    1.3814   -2.1409 O   0  0  0  0  0  0  0  0  0  0  0  0
   -3.9072   -0.3020   -0.5108 C   0  0  2  0  0  0  0  0  0  0  0  0
   -4.9662    0.0406    0.3802 O   0  0  0  0  0  0  0  0  0  0  0  0
   -2.6766   -0.7963    0.2458 C   0  0  1  0  0  0  0  0  0  0  0  0
   -2.8250   -2.2329    0.7391 C   0  0  0  0  0  0  0  0  0  0  0  0
   -1.7404   -2.5551    1.6114 O   0  0  0  0  0  0  0  0  0  0  0  0
    0.0000    0.0000    0.0000 Cl  0  0  0  0  0  0  0  0  0  0  0  0
    4.6531   -2.6119   -0.4238 H   0  0  0  0  0  0  0  0  0  0  0  0
    3.9046   -0.0895   -1.4327 H   0  0  0  0  0  0  0  0  0  0  0  0
    5.1439   -0.2861   -0.1695 H   0  0  0  0  0  0  0  0  0  0  0  0
    2.3184   -1.4955   -0.0233 H   0  0  0  0  0  0  0  0  0  0  0  0
    4.0504   -1.2810    2.1472 H   0  0  0  0  0  0  0  0  0  0  0  0
    1.9115    0.0425    1.8814 H   0  0  0  0  0  0  0  0  0  0  0  0
    4.3964    1.2770    1.3248 H   0  0  0  0  0  0  0  0  0  0  0  0
    2.9227    1.8495   -0.3829 H   0  0  0  0  0  0  0  0  0  0  0  0
    2.2399    2.5714    1.7971 H   0  0  0  0  0  0  0  0  0  0  0  0
    1.3141    0.2232   -1.4088 H   0  0  0  0  0  0  0  0  0  0  0  0
    0.6177    2.9079   -0.9154 H   0  0  0  0  0  0  0  0  0  0  0  0
   -0.0718    0.0558    0.9416 H   0  0  0  0  0  0  0  0  0  0  0  0
   -0.9579    1.4301    0.2407 H   0  0  0  0  0  0  0  0  0  0  0  0
   -2.4718   -0.0427   -2.9290 H   0  0  0  0  0  0  0  0  0  0  0  0
   -1.5788    1.3511   -2.3410 H   0  0  0  0  0  0  0  0  0  0  0  0
   -3.2253    1.7610   -0.5667 H   0  0  0  0  0  0  0  0  0  0  0  0
   -4.1151    2.1217   -2.6626 H   0  0  0  0  0  0  0  0  0  0  0  0
   -4.2931   -1.0573   -1.2072 H   0  0  0  0  0  0  0  0  0  0  0  0
   -5.6101    0.5332   -0.1664 H   0  0  0  0  0  0  0  0  0  0  0  0
   -2.4679   -0.1452    1.1028 H   0  0  0  0  0  0  0  0  0  0  0  0
   -2.8273   -2.9479   -0.0907 H   0  0  0  0  0  0  0  0  0  0  0  0
   -3.7523   -2.3527    1.3084 H   0  0  0  0  0  0  0  0  0  0  0  0
   -1.8226   -3.5008    1.8222 H   0  0  0  0  0  0  0  0  0  0  0  0
  1  2  1  0
  2  3  1  0
  3  4  1  0
  3  5  1  0
  5  6  1  0
  5  7  1  0
  7  8  1  0
  7  9  1  0
  9 10  1  0
  9 11  1  0
 12 11  1  1
 12 13  1  0
 13 14  1  0
 14 15  1  0
 14 16  1  0
 16 17  1  0
 16 18  1  0
 18 19  1  0
 19 20  1  0
 18 12  1  0
  1 22  1  0
  2 23  1  0
  2 24  1  0
  3 25  1  6
  4 26  1  0
  5 27  1  1
  6 28  1  0
  7 29  1  6
  8 30  1  0
  9 31  1  6
 10 32  1  0
 11 33  1  0
 11 34  1  0
 13 35  1  0
 13 36  1  0
 14 37  1  1
 15 38  1  0
 16 39  1  6
 17 40  1  0
 18 41  1  1
 19 42  1  0
 19 43  1  0
 20 44  1  0
M  CHG  2  12   1  21  -1
M  END
