
     RDKit          3D

 51 52  0  0  0  0  0  0  0  0999 V2000
    6.0353   -0.3046    0.0043 C   0  0  0  0  0  0  0  0  0  0  0  0
    5.1525   -0.6121   -1.0672 O   0  0  0  0  0  0  0  0  0  0  0  0
    3.7823   -0.5963   -0.6491 C   0  0  1  0  0  0  0  0  0  0  0  0
    3.3847    0.7057   -0.2365 O   0  0  0  0  0  0  0  0  0  0  0  0
    2.0635    0.7465    0.3289 C   0  0  2  0  0  0  0  0  0  0  0  0
    2.1643    0.6319    1.8468 C   0  0  0  0  0  0  0  0  0  0  0  0
    1.0880   -0.2994   -0.2843 C   0  0  1  0  0  0  0  0  0  0  0  0
   -0.3209    0.1134   -0.2142 N   0  0  0  0  0  0  0  0  0  0  0  0
   -1.1228   -0.5177    0.8389 C   0  0  1  0  0  0  0  0  0  0  0  0
   -1.9412    0.5266    1.6244 C   0  0  0  0  0  0  0  0  0  0  0  0
   -3.0560    1.2038    0.8024 C   0  0  2  0  0  0  0  0  0  0  0  0
   -2.4369    2.0699   -0.1756 O   0  0  0  0  0  0  0  0  0  0  0  0
   -3.9223    2.1160    1.6968 C   0  0  0  0  0  0  0  0  0  0  0  0
   -3.1078    3.1118    2.3193 O   0  0  0  0  0  0  0  0  0  0  0  0
   -3.9366    0.1632    0.0821 C   0  0  1  0  0  0  0  0  0  0  0  0
   -4.8085    0.8440   -0.8384 O   0  0  0  0  0  0  0  0  0  0  0  0
   -3.1194   -0.8693   -0.7013 C   0  0  2  0  0  0  0  0  0  0  0  0
   -4.0289   -1.8589   -1.2194 O   0  0  0  0  0  0  0  0  0  0  0  0
   -2.0754   -1.5479    0.1928 C   0  0  1  0  0  0  0  0  0  0  0  0
   -1.3524   -2.5073   -0.5925 O   0  0  0  0  0  0  0  0  0  0  0  0
    1.4873   -0.5287   -1.7559 C   0  0  2  0  0  0  0  0  0  0  0  0
    0.6009   -1.4823   -2.3759 O   0  0  0  0  0  0  0  0  0  0  0  0
    2.9269   -1.0535   -1.8524 C   0  0  1  0  0  0  0  0  0  0  0  0
    3.4732   -0.5925   -3.1054 O   0  0  0  0  0  0  0  0  0  0  0  0
    7.0613   -0.3836   -0.3653 H   0  0  0  0  0  0  0  0  0  0  0  0
    5.8752    0.7179    0.3590 H   0  0  0  0  0  0  0  0  0  0  0  0
    5.9067   -1.0150    0.8266 H   0  0  0  0  0  0  0  0  0  0  0  0
    3.6575   -1.3010    0.1834 H   0  0  0  0  0  0  0  0  0  0  0  0
    1.6970    1.7551    0.0998 H   0  0  0  0  0  0  0  0  0  0  0  0
    2.8750    1.3682    2.2375 H   0  0  0  0  0  0  0  0  0  0  0  0
    1.1971    0.7954    2.3291 H   0  0  0  0  0  0  0  0  0  0  0  0
    2.5390   -0.3533    2.1437 H   0  0  0  0  0  0  0  0  0  0  0  0
    1.2105   -1.2669    0.2220 H   0  0  0  0  0  0  0  0  0  0  0  0
   -0.4499    1.1293   -0.2447 H   0  0  0  0  0  0  0  0  0  0  0  0
   -0.4705   -1.0362    1.5522 H   0  0  0  0  0  0  0  0  0  0  0  0
   -1.2513    1.2830    2.0204 H   0  0  0  0  0  0  0  0  0  0  0  0
   -2.3911    0.0241    2.4911 H   0  0  0  0  0  0  0  0  0  0  0  0
   -3.1373    2.2305   -0.8450 H   0  0  0  0  0  0  0  0  0  0  0  0
   -4.6793    2.6470    1.1103 H   0  0  0  0  0  0  0  0  0  0  0  0
   -4.4266    1.5464    2.4837 H   0  0  0  0  0  0  0  0  0  0  0  0
   -2.5606    3.4826    1.5992 H   0  0  0  0  0  0  0  0  0  0  0  0
   -4.5812   -0.3535    0.8045 H   0  0  0  0  0  0  0  0  0  0  0  0
   -5.2157    0.1275   -1.3703 H   0  0  0  0  0  0  0  0  0  0  0  0
   -2.6556   -0.4140   -1.5844 H   0  0  0  0  0  0  0  0  0  0  0  0
   -3.4538   -2.6041   -1.4933 H   0  0  0  0  0  0  0  0  0  0  0  0
   -2.5834   -2.1238    0.9758 H   0  0  0  0  0  0  0  0  0  0  0  0
   -0.7548   -1.9856   -1.1804 H   0  0  0  0  0  0  0  0  0  0  0  0
    1.3783    0.4074   -2.3200 H   0  0  0  0  0  0  0  0  0  0  0  0
    0.9000   -1.5373   -3.3051 H   0  0  0  0  0  0  0  0  0  0  0  0
    2.9560   -2.1476   -1.9136 H   0  0  0  0  0  0  0  0  0  0  0  0
    4.4276   -0.4550   -2.9255 H   0  0  0  0  0  0  0  0  0  0  0  0
  1  2  1  0
  2  3  1  0
  3  4  1  0
  4  5  1  0
  5  6  1  0
  5  7  1  0
  7  8  1  0
  8  9  1  0
  9 10  1  0
 10 11  1  0
 11 12  1  6
 11 13  1  0
 13 14  1  0
 11 15  1  0
 15 16  1  0
 15 17  1  0
 17 18  1  0
 17 19  1  0
 19 20  1  0
  7 21  1  0
 21 22  1  0
 21 23  1  0
 23 24  1  0
 23  3  1  0
 19  9  1  0
  1 25  1  0
  1 26  1  0
  1 27  1  0
  3 28  1  1
  5 29  1  1
  6 30  1  0
  6 31  1  0
  6 32  1  0
  7 33  1  1
  8 34  1  0
  9 35  1  1
 10 36  1  0
 10 37  1  0
 12 38  1  0
 13 39  1  0
 13 40  1  0
 14 41  1  0
 15 42  1  1
 16 43  1  0
 17 44  1  6
 18 45  1  0
 19 46  1  1
 20 47  1  0
 21 48  1  6
 22 49  1  0
 23 50  1  6
 24 51  1  0
M  END
