
     RDKit          3D

 40 41  0  0  0  0  0  0  0  0999 V2000
   -3.3610    2.5431    1.0252 O   0  0  0  0  0  0  0  0  0  0  0  0
   -3.3014    2.0772   -0.3206 C   0  0  0  0  0  0  0  0  0  0  0  0
   -2.4704    0.7850   -0.4417 C   0  0  1  0  0  0  0  0  0  0  0  0
   -2.4449    0.4494   -1.8461 O   0  0  0  0  0  0  0  0  0  0  0  0
   -1.0091    1.0281    0.0242 C   0  0  0  0  0  0  0  0  0  0  0  0
   -0.3659   -0.2216    0.6728 C   0  0  2  0  0  0  0  0  0  0  0  0
    1.0944   -0.0650    0.8342 N   0  0  0  0  0  0  0  0  0  0  0  0
    1.8893   -0.2804   -0.3753 C   0  0  0  0  0  0  0  0  0  0  0  0
    3.3370    0.0724   -0.1455 C   0  0  0  0  0  0  0  0  0  0  0  0
    4.0795   -0.4988    0.8935 C   0  0  0  0  0  0  0  0  0  0  0  0
    5.4194   -0.1600    1.0562 C   0  0  0  0  0  0  0  0  0  0  0  0
    5.9803    0.7390    0.1652 C   0  0  0  0  0  0  0  0  0  0  0  0
    5.3028    1.3062   -0.8555 N   0  0  0  0  0  0  0  0  0  0  0  0
    4.0016    0.9593   -0.9875 C   0  0  0  0  0  0  0  0  0  0  0  0
   -0.8438   -1.5333   -0.0016 C   0  0  2  0  0  0  0  0  0  0  0  0
   -0.5506   -1.4884   -1.4116 O   0  0  0  0  0  0  0  0  0  0  0  0
   -2.3712   -1.7064    0.1551 C   0  0  1  0  0  0  0  0  0  0  0  0
   -2.6824   -2.5616    1.2662 O   0  0  0  0  0  0  0  0  0  0  0  0
   -3.1075   -0.3679    0.3745 C   0  0  2  0  0  0  0  0  0  0  0  0
   -4.4917   -0.5684    0.0423 O   0  0  0  0  0  0  0  0  0  0  0  0
   -4.0102    3.2684    1.0339 H   0  0  0  0  0  0  0  0  0  0  0  0
   -4.3221    1.9212   -0.6881 H   0  0  0  0  0  0  0  0  0  0  0  0
   -2.8623    2.8690   -0.9390 H   0  0  0  0  0  0  0  0  0  0  0  0
   -1.7193   -0.1918   -1.9928 H   0  0  0  0  0  0  0  0  0  0  0  0
   -0.4175    1.3699   -0.8337 H   0  0  0  0  0  0  0  0  0  0  0  0
   -0.9647    1.8363    0.7652 H   0  0  0  0  0  0  0  0  0  0  0  0
   -0.7334   -0.2628    1.7078 H   0  0  0  0  0  0  0  0  0  0  0  0
    1.2893    0.8730    1.1884 H   0  0  0  0  0  0  0  0  0  0  0  0
    1.8608   -1.3344   -0.6736 H   0  0  0  0  0  0  0  0  0  0  0  0
    1.5019    0.3166   -1.2077 H   0  0  0  0  0  0  0  0  0  0  0  0
    3.6110   -1.2021    1.5780 H   0  0  0  0  0  0  0  0  0  0  0  0
    6.0103   -0.5868    1.8584 H   0  0  0  0  0  0  0  0  0  0  0  0
    7.0217    1.0354    0.2507 H   0  0  0  0  0  0  0  0  0  0  0  0
    3.4934    1.4352   -1.8223 H   0  0  0  0  0  0  0  0  0  0  0  0
   -0.3105   -2.3894    0.4287 H   0  0  0  0  0  0  0  0  0  0  0  0
   -0.5364   -2.4112   -1.7282 H   0  0  0  0  0  0  0  0  0  0  0  0
   -2.7856   -2.2049   -0.7305 H   0  0  0  0  0  0  0  0  0  0  0  0
   -2.3362   -3.4488    1.0643 H   0  0  0  0  0  0  0  0  0  0  0  0
   -3.0981   -0.1079    1.4411 H   0  0  0  0  0  0  0  0  0  0  0  0
   -4.7964   -1.2929    0.6199 H   0  0  0  0  0  0  0  0  0  0  0  0
  1  2  1  0
  2  3  1  0
  3  4  1  6
  3  5  1  0
  5  6  1  0
  6  7  1  0
  7  8  1  0
  8  9  1  0
  9 10  1  0
 10 11  2  0
 11 12  1  0
 12 13  2  0
 13 14  1  0
  6 15  1  0
 15 16  1  0
 15 17  1  0
 17 18  1  0
 17 19  1  0
 19 20  1  0
 19  3  1  0
 14  9  2  0
  1 21  1  0
  2 22  1  0
  2 23  1  0
  4 24  1  0
  5 25  1  0
  5 26  1  0
  6 27  1  1
  7 28  1  0
  8 29  1  0
  8 30  1  0
 10 31  1  0
 11 32  1  0
 12 33  1  0
 14 34  1  0
 15 35  1  1
 16 36  1  0
 17 37  1  6
 18 38  1  0
 19 39  1  1
 20 40  1  0
M  END
