
     RDKit          3D

 45 46  0  0  0  0  0  0  0  0999 V2000
    1.6008    2.5517    2.6329 O   0  0  0  0  0  0  0  0  0  0  0  0
    2.5328    1.8313    1.8119 C   0  0  0  0  0  0  0  0  0  0  0  0
    1.8121    1.0873    0.6600 C   0  0  2  0  0  0  0  0  0  0  0  0
    0.7937    0.1765    1.2285 N   0  0  0  0  0  0  0  0  0  0  0  0
   -0.3949    0.0330    0.3735 C   0  0  1  0  0  0  0  0  0  0  0  0
   -1.2398   -1.1337    0.9124 C   0  0  0  0  0  0  0  0  0  0  0  0
   -2.4656   -1.4303    0.0166 C   0  0  2  0  0  0  0  0  0  0  0  0
   -3.5098   -1.9207    0.8905 O   0  0  0  0  0  0  0  0  0  0  0  0
   -2.1993   -2.5542   -1.0046 C   0  0  0  0  0  0  0  0  0  0  0  0
   -1.8876   -3.7751   -0.3364 O   0  0  0  0  0  0  0  0  0  0  0  0
   -2.9841   -0.1669   -0.7123 C   0  0  1  0  0  0  0  0  0  0  0  0
   -4.3866   -0.3212   -0.9869 O   0  0  0  0  0  0  0  0  0  0  0  0
   -2.7545    1.0635    0.1648 C   0  0  2  0  0  0  0  0  0  0  0  0
   -3.3936    2.2159   -0.4038 O   0  0  0  0  0  0  0  0  0  0  0  0
   -1.2463    1.3397    0.2880 C   0  0  1  0  0  0  0  0  0  0  0  0
   -1.0174    2.1891    1.4316 O   0  0  0  0  0  0  0  0  0  0  0  0
    2.7949    0.3641   -0.2403 C   0  0  0  0  0  0  0  0  0  0  0  0
    3.1857    0.9411   -1.4604 C   0  0  0  0  0  0  0  0  0  0  0  0
    4.1030    0.2962   -2.2940 C   0  0  0  0  0  0  0  0  0  0  0  0
    4.6437   -0.9316   -1.9181 C   0  0  0  0  0  0  0  0  0  0  0  0
    4.2697   -1.5147   -0.7089 C   0  0  0  0  0  0  0  0  0  0  0  0
    3.3533   -0.8705    0.1262 C   0  0  0  0  0  0  0  0  0  0  0  0
    0.7373    2.5742    2.1678 H   0  0  0  0  0  0  0  0  0  0  0  0
    3.2458    2.5587    1.4110 H   0  0  0  0  0  0  0  0  0  0  0  0
    3.0845    1.1408    2.4596 H   0  0  0  0  0  0  0  0  0  0  0  0
    1.3092    1.8654    0.0728 H   0  0  0  0  0  0  0  0  0  0  0  0
    0.4839    0.5692    2.1240 H   0  0  0  0  0  0  0  0  0  0  0  0
   -0.0821   -0.2477   -0.6416 H   0  0  0  0  0  0  0  0  0  0  0  0
   -1.5772   -0.8960    1.9320 H   0  0  0  0  0  0  0  0  0  0  0  0
   -0.6177   -2.0323    1.0146 H   0  0  0  0  0  0  0  0  0  0  0  0
   -4.3496   -1.7249    0.4207 H   0  0  0  0  0  0  0  0  0  0  0  0
   -3.0913   -2.7466   -1.6108 H   0  0  0  0  0  0  0  0  0  0  0  0
   -1.3704   -2.3047   -1.6757 H   0  0  0  0  0  0  0  0  0  0  0  0
   -2.4758   -3.8030    0.4460 H   0  0  0  0  0  0  0  0  0  0  0  0
   -2.4769   -0.0331   -1.6778 H   0  0  0  0  0  0  0  0  0  0  0  0
   -4.5993    0.3255   -1.6856 H   0  0  0  0  0  0  0  0  0  0  0  0
   -3.2040    0.9304    1.1571 H   0  0  0  0  0  0  0  0  0  0  0  0
   -4.3483    2.1045   -0.2363 H   0  0  0  0  0  0  0  0  0  0  0  0
   -0.9045    1.9227   -0.5759 H   0  0  0  0  0  0  0  0  0  0  0  0
   -1.6623    2.9212    1.3464 H   0  0  0  0  0  0  0  0  0  0  0  0
    2.7796    1.9009   -1.7703 H   0  0  0  0  0  0  0  0  0  0  0  0
    4.3972    0.7524   -3.2347 H   0  0  0  0  0  0  0  0  0  0  0  0
    5.3564   -1.4340   -2.5664 H   0  0  0  0  0  0  0  0  0  0  0  0
    4.6890   -2.4734   -0.4137 H   0  0  0  0  0  0  0  0  0  0  0  0
    3.0667   -1.3407    1.0653 H   0  0  0  0  0  0  0  0  0  0  0  0
  1  2  1  0
  2  3  1  0
  3  4  1  0
  4  5  1  0
  5  6  1  0
  6  7  1  0
  7  8  1  1
  7  9  1  0
  9 10  1  0
  7 11  1  0
 11 12  1  0
 11 13  1  0
 13 14  1  0
 13 15  1  0
 15 16  1  0
  3 17  1  0
 17 18  2  0
 18 19  1  0
 19 20  2  0
 20 21  1  0
 21 22  2  0
 15  5  1  0
 22 17  1  0
  1 23  1  0
  2 24  1  0
  2 25  1  0
  3 26  1  6
  4 27  1  0
  5 28  1  6
  6 29  1  0
  6 30  1  0
  8 31  1  0
  9 32  1  0
  9 33  1  0
 10 34  1  0
 11 35  1  6
 12 36  1  0
 13 37  1  1
 14 38  1  0
 15 39  1  6
 16 40  1  0
 18 41  1  0
 19 42  1  0
 20 43  1  0
 21 44  1  0
 22 45  1  0
M  END
