
     RDKit          3D

 51 52  0  0  0  0  0  0  0  0999 V2000
    2.3072    2.3152    0.5460 C   0  0  0  0  0  0  0  0  0  0  0  0
    1.9300    0.9937   -0.1323 C   0  0  1  0  0  0  0  0  0  0  0  0
    3.0711    0.4951   -1.0510 C   0  0  0  0  0  0  0  0  0  0  0  0
    3.9944   -0.5139   -0.3607 C   0  0  2  0  0  0  0  0  0  0  0  0
    5.0933   -0.9168   -1.2589 N   0  0  0  0  0  0  0  0  0  0  0  0
    3.2166   -1.7569    0.1434 C   0  0  2  0  0  0  0  0  0  0  0  0
    3.3416   -2.8486   -0.7852 O   0  0  0  0  0  0  0  0  0  0  0  0
    1.7172   -1.4936    0.3722 C   0  0  1  0  0  0  0  0  0  0  0  0
    1.2032   -2.4768    1.2841 O   0  0  0  0  0  0  0  0  0  0  0  0
    1.5081   -0.0663    0.9226 C   0  0  2  0  0  0  0  0  0  0  0  0
    0.2110    0.1552    1.5824 N   0  0  0  0  0  0  0  0  0  0  0  0
   -0.9680    0.5273    0.7883 C   0  0  1  0  0  0  0  0  0  0  0  0
   -1.3469   -0.5192   -0.2857 C   0  0  0  0  0  0  0  0  0  0  0  0
   -2.8257   -0.4374   -0.7331 C   0  0  2  0  0  0  0  0  0  0  0  0
   -3.5633   -1.3463    0.1191 O   0  0  0  0  0  0  0  0  0  0  0  0
   -2.9959   -0.8890   -2.1983 C   0  0  0  0  0  0  0  0  0  0  0  0
   -2.4178    0.0292   -3.1167 O   0  0  0  0  0  0  0  0  0  0  0  0
   -3.3518    0.9961   -0.5073 C   0  0  1  0  0  0  0  0  0  0  0  0
   -4.6558    1.1808   -1.0793 O   0  0  0  0  0  0  0  0  0  0  0  0
   -3.4037    1.3270    0.9959 C   0  0  2  0  0  0  0  0  0  0  0  0
   -3.5334    2.7540    1.1118 O   0  0  0  0  0  0  0  0  0  0  0  0
   -2.1582    0.8085    1.7523 C   0  0  1  0  0  0  0  0  0  0  0  0
   -2.5009   -0.3849    2.4784 O   0  0  0  0  0  0  0  0  0  0  0  0
    2.5480    3.0790   -0.2011 H   0  0  0  0  0  0  0  0  0  0  0  0
    1.4810    2.6982    1.1536 H   0  0  0  0  0  0  0  0  0  0  0  0
    3.1802    2.1931    1.1957 H   0  0  0  0  0  0  0  0  0  0  0  0
    1.0922    1.2114   -0.8046 H   0  0  0  0  0  0  0  0  0  0  0  0
    2.6187    0.0165   -1.9312 H   0  0  0  0  0  0  0  0  0  0  0  0
    3.6480    1.3457   -1.4356 H   0  0  0  0  0  0  0  0  0  0  0  0
    4.4398   -0.0201    0.5123 H   0  0  0  0  0  0  0  0  0  0  0  0
    4.7047   -1.1181   -2.1844 H   0  0  0  0  0  0  0  0  0  0  0  0
    5.7051   -0.1118   -1.4093 H   0  0  0  0  0  0  0  0  0  0  0  0
    3.6830   -2.1130    1.0708 H   0  0  0  0  0  0  0  0  0  0  0  0
    4.2885   -2.8254   -1.0389 H   0  0  0  0  0  0  0  0  0  0  0  0
    1.1695   -1.6319   -0.5663 H   0  0  0  0  0  0  0  0  0  0  0  0
    1.4830   -3.3377    0.9174 H   0  0  0  0  0  0  0  0  0  0  0  0
    2.2137    0.0197    1.7623 H   0  0  0  0  0  0  0  0  0  0  0  0
   -0.0149   -0.6901    2.1244 H   0  0  0  0  0  0  0  0  0  0  0  0
   -0.7557    1.4815    0.2914 H   0  0  0  0  0  0  0  0  0  0  0  0
   -0.6864   -0.3693   -1.1477 H   0  0  0  0  0  0  0  0  0  0  0  0
   -1.1548   -1.5307    0.0937 H   0  0  0  0  0  0  0  0  0  0  0  0
   -3.4560   -2.2474   -0.2395 H   0  0  0  0  0  0  0  0  0  0  0  0
   -4.0531   -1.0310   -2.4518 H   0  0  0  0  0  0  0  0  0  0  0  0
   -2.5166   -1.8634   -2.3483 H   0  0  0  0  0  0  0  0  0  0  0  0
   -3.0766    0.7398   -3.2382 H   0  0  0  0  0  0  0  0  0  0  0  0
   -2.7093    1.7184   -1.0274 H   0  0  0  0  0  0  0  0  0  0  0  0
   -4.9766    2.0312   -0.7187 H   0  0  0  0  0  0  0  0  0  0  0  0
   -4.3194    0.9111    1.4345 H   0  0  0  0  0  0  0  0  0  0  0  0
   -3.6043    2.9501    2.0648 H   0  0  0  0  0  0  0  0  0  0  0  0
   -1.8499    1.5468    2.5024 H   0  0  0  0  0  0  0  0  0  0  0  0
   -2.9543   -0.9853    1.8498 H   0  0  0  0  0  0  0  0  0  0  0  0
  1  2  1  0
  2  3  1  0
  3  4  1  0
  4  5  1  0
  4  6  1  0
  6  7  1  0
  6  8  1  0
  8  9  1  0
  8 10  1  0
 10 11  1  0
 11 12  1  0
 12 13  1  0
 13 14  1  0
 14 15  1  1
 14 16  1  0
 16 17  1  0
 14 18  1  0
 18 19  1  0
 18 20  1  0
 20 21  1  0
 20 22  1  0
 22 23  1  0
 10  2  1  0
 22 12  1  0
  1 24  1  0
  1 25  1  0
  1 26  1  0
  2 27  1  6
  3 28  1  0
  3 29  1  0
  4 30  1  1
  5 31  1  0
  5 32  1  0
  6 33  1  1
  7 34  1  0
  8 35  1  6
  9 36  1  0
 10 37  1  1
 11 38  1  0
 12 39  1  6
 13 40  1  0
 13 41  1  0
 15 42  1  0
 16 43  1  0
 16 44  1  0
 17 45  1  0
 18 46  1  6
 19 47  1  0
 20 48  1  1
 21 49  1  0
 22 50  1  1
 23 51  1  0
M  END
