
     RDKit          3D

 49 48  0  0  0  0  0  0  0  0999 V2000
    0.6911    0.0000    0.0000 Cl  0  0  0  0  0  0  0  0  0  0  0  0
   -4.0664   -2.2167   -1.8157 O   0  0  0  0  0  0  0  0  0  0  0  0
   -3.0730   -1.9372   -0.8451 C   0  0  0  0  0  0  0  0  0  0  0  0
   -3.4610   -0.7066   -0.1289 C   0  0  2  0  0  0  0  0  0  0  0  0
   -3.7101    0.4773   -1.0314 C   0  0  1  0  0  0  0  0  0  0  0  0
   -4.8829    0.3173   -1.7865 O   0  0  0  0  0  0  0  0  0  0  0  0
   -3.8747    1.5936    0.0090 C   0  0  2  0  0  0  0  0  0  0  0  0
   -3.3687    2.8058   -0.4519 O   0  0  0  0  0  0  0  0  0  0  0  0
   -3.1542    1.0944    1.2260 C   0  0  0  0  0  0  0  0  0  0  0  0
   -2.6622   -0.1998    0.8876 N   0  0  0  0  0  0  0  0  0  0  0  0
   -1.3264   -0.4721    1.0532 C   0  0  0  0  0  0  0  0  0  0  0  0
   -0.3025    0.1924    0.1836 C   0  0  1  0  0  0  0  0  0  0  0  0
   -0.3243    1.5856    0.2733 O   0  0  0  0  0  0  0  0  0  0  0  0
    1.0485   -0.3121    0.6941 C   0  0  1  0  0  0  0  0  0  0  0  0
    1.1285   -1.6990    0.6370 O   0  0  0  0  0  0  0  0  0  0  0  0
    2.2207    0.2452   -0.0433 C   0  0  2  0  0  0  0  0  0  0  0  0
    2.2580   -0.1638   -1.3641 O   0  0  0  0  0  0  0  0  0  0  0  0
    3.4613   -0.2185    0.7255 C   0  0  2  0  0  0  0  0  0  0  0  0
    3.3091    0.2629    2.0543 O   0  0  0  0  0  0  0  0  0  0  0  0
    4.7231    0.4173    0.2218 C   0  0  1  0  0  0  0  0  0  0  0  0
    5.7535    0.0168    1.0961 O   0  0  0  0  0  0  0  0  0  0  0  0
    5.1057   -0.0796   -1.1649 C   0  0  0  0  0  0  0  0  0  0  0  0
    5.2337   -1.4646   -1.1729 O   0  0  0  0  0  0  0  0  0  0  0  0
   -0.6911    0.0000    0.0000 H   0  0  0  0  0  0  0  0  0  0  0  0
   -4.7910   -2.7031   -1.3446 H   0  0  0  0  0  0  0  0  0  0  0  0
   -2.1554   -1.8132   -1.4650 H   0  0  0  0  0  0  0  0  0  0  0  0
   -3.0131   -2.8360   -0.2299 H   0  0  0  0  0  0  0  0  0  0  0  0
   -4.4821   -0.9134    0.3334 H   0  0  0  0  0  0  0  0  0  0  0  0
   -2.8896    0.7213   -1.6942 H   0  0  0  0  0  0  0  0  0  0  0  0
   -4.6455    0.2283   -2.7298 H   0  0  0  0  0  0  0  0  0  0  0  0
   -4.9727    1.6854    0.1676 H   0  0  0  0  0  0  0  0  0  0  0  0
   -3.8021    3.5172    0.1131 H   0  0  0  0  0  0  0  0  0  0  0  0
   -3.9455    0.9282    2.0149 H   0  0  0  0  0  0  0  0  0  0  0  0
   -2.4362    1.7890    1.6731 H   0  0  0  0  0  0  0  0  0  0  0  0
   -1.0327   -0.2072    2.1124 H   0  0  0  0  0  0  0  0  0  0  0  0
   -1.1326   -1.5631    0.9963 H   0  0  0  0  0  0  0  0  0  0  0  0
   -0.3367   -0.0750   -0.8791 H   0  0  0  0  0  0  0  0  0  0  0  0
    0.1967    1.8598    1.0654 H   0  0  0  0  0  0  0  0  0  0  0  0
    1.1412   -0.0489    1.7825 H   0  0  0  0  0  0  0  0  0  0  0  0
    1.2467   -1.9275   -0.3286 H   0  0  0  0  0  0  0  0  0  0  0  0
    2.2868    1.3534   -0.0312 H   0  0  0  0  0  0  0  0  0  0  0  0
    1.8579    0.5525   -1.9134 H   0  0  0  0  0  0  0  0  0  0  0  0
    3.5700   -1.3023    0.7513 H   0  0  0  0  0  0  0  0  0  0  0  0
    3.2780    1.2556    1.9606 H   0  0  0  0  0  0  0  0  0  0  0  0
    4.7056    1.5166    0.2291 H   0  0  0  0  0  0  0  0  0  0  0  0
    5.3823   -0.4287    1.8943 H   0  0  0  0  0  0  0  0  0  0  0  0
    4.4553    0.3110   -1.9478 H   0  0  0  0  0  0  0  0  0  0  0  0
    6.1421    0.3229   -1.3763 H   0  0  0  0  0  0  0  0  0  0  0  0
    5.3368   -1.7613   -0.2172 H   0  0  0  0  0  0  0  0  0  0  0  0
  2  3  1  0
  3  4  1  0
  4  5  1  0
  5  6  1  0
  5  7  1  0
  7  8  1  0
  7  9  1  0
  9 10  1  0
 10 11  1  0
 11 12  1  0
 12 13  1  0
 12 14  1  0
 14 15  1  0
 14 16  1  0
 16 17  1  0
 16 18  1  0
 18 19  1  0
 18 20  1  0
 20 21  1  0
 20 22  1  0
 22 23  1  0
 10  4  1  0
  1 24  1  0
  2 25  1  0
  3 26  1  0
  3 27  1  0
  4 28  1  1
  5 29  1  6
  6 30  1  0
  7 31  1  1
  8 32  1  0
  9 33  1  0
  9 34  1  0
 11 35  1  0
 11 36  1  0
 12 37  1  6
 13 38  1  0
 14 39  1  1
 15 40  1  0
 16 41  1  6
 17 42  1  0
 18 43  1  1
 19 44  1  0
 20 45  1  6
 21 46  1  0
 22 47  1  0
 22 48  1  0
 23 49  1  0
M  END
