
     RDKit          3D

 39 39  0  0  0  0  0  0  0  0999 V2000
   -4.7404    0.6754    0.6105 O   0  0  0  0  0  0  0  0  0  0  0  0
   -3.5654    0.5109    1.3992 C   0  0  0  0  0  0  0  0  0  0  0  0
   -2.4194   -0.1579    0.5963 C   0  0  0  0  0  0  0  0  0  0  0  0
   -2.7875   -1.6312    0.2950 C   0  0  0  0  0  0  0  0  0  0  0  0
   -4.0290   -1.7086   -0.4066 O   0  0  0  0  0  0  0  0  0  0  0  0
   -1.1456   -0.0626    1.3495 N   0  0  0  0  0  0  0  0  0  0  0  0
    0.0500   -0.2038    0.4838 C   0  0  1  0  0  0  0  0  0  0  0  0
    0.4614    1.1312   -0.1545 C   0  0  0  0  0  0  0  0  0  0  0  0
    1.6711    0.9680   -1.1057 C   0  0  2  0  0  0  0  0  0  0  0  0
    2.3700    2.2335   -1.0983 O   0  0  0  0  0  0  0  0  0  0  0  0
    1.2465    0.7174   -2.5664 C   0  0  0  0  0  0  0  0  0  0  0  0
    0.4427    1.7950   -3.0433 O   0  0  0  0  0  0  0  0  0  0  0  0
    2.6399   -0.1483   -0.6495 C   0  0  1  0  0  0  0  0  0  0  0  0
    3.9716    0.1822   -1.0772 O   0  0  0  0  0  0  0  0  0  0  0  0
    2.6063   -0.3072    0.8685 C   0  0  2  0  0  0  0  0  0  0  0  0
    3.6090   -1.2592    1.2592 O   0  0  0  0  0  0  0  0  0  0  0  0
    1.2221   -0.7882    1.3283 C   0  0  1  0  0  0  0  0  0  0  0  0
    1.0796   -0.4507    2.7168 O   0  0  0  0  0  0  0  0  0  0  0  0
   -4.8539   -0.1595    0.1060 H   0  0  0  0  0  0  0  0  0  0  0  0
   -3.8227   -0.0769    2.2867 H   0  0  0  0  0  0  0  0  0  0  0  0
   -3.2693    1.5106    1.7339 H   0  0  0  0  0  0  0  0  0  0  0  0
   -2.3517    0.3823   -0.3569 H   0  0  0  0  0  0  0  0  0  0  0  0
   -2.0251   -2.1097   -0.3268 H   0  0  0  0  0  0  0  0  0  0  0  0
   -2.8867   -2.2041    1.2238 H   0  0  0  0  0  0  0  0  0  0  0  0
   -4.1755   -2.6495   -0.6158 H   0  0  0  0  0  0  0  0  0  0  0  0
   -1.1050    0.8680    1.7800 H   0  0  0  0  0  0  0  0  0  0  0  0
   -0.1444   -0.9185   -0.3252 H   0  0  0  0  0  0  0  0  0  0  0  0
    0.7140    1.8495    0.6388 H   0  0  0  0  0  0  0  0  0  0  0  0
   -0.3829    1.5850   -0.6864 H   0  0  0  0  0  0  0  0  0  0  0  0
    3.3049    2.0051   -1.2999 H   0  0  0  0  0  0  0  0  0  0  0  0
    0.6710   -0.2079   -2.6647 H   0  0  0  0  0  0  0  0  0  0  0  0
    2.1210    0.6564   -3.2231 H   0  0  0  0  0  0  0  0  0  0  0  0
    0.8970    2.6082   -2.7424 H   0  0  0  0  0  0  0  0  0  0  0  0
    2.3878   -1.1095   -1.1146 H   0  0  0  0  0  0  0  0  0  0  0  0
    4.5557   -0.3983   -0.5431 H   0  0  0  0  0  0  0  0  0  0  0  0
    2.8866    0.6345    1.3568 H   0  0  0  0  0  0  0  0  0  0  0  0
    3.5109   -1.3503    2.2285 H   0  0  0  0  0  0  0  0  0  0  0  0
    1.1687   -1.8836    1.2902 H   0  0  0  0  0  0  0  0  0  0  0  0
    0.1168   -0.5279    2.8836 H   0  0  0  0  0  0  0  0  0  0  0  0
  1  2  1  0
  2  3  1  0
  3  4  1  0
  4  5  1  0
  3  6  1  0
  6  7  1  0
  7  8  1  0
  8  9  1  0
  9 10  1  6
  9 11  1  0
 11 12  1  0
  9 13  1  0
 13 14  1  0
 13 15  1  0
 15 16  1  0
 15 17  1  0
 17 18  1  0
 17  7  1  0
  1 19  1  0
  2 20  1  0
  2 21  1  0
  3 22  1  0
  4 23  1  0
  4 24  1  0
  5 25  1  0
  6 26  1  0
  7 27  1  6
  8 28  1  0
  8 29  1  0
 10 30  1  0
 11 31  1  0
 11 32  1  0
 12 33  1  0
 13 34  1  6
 14 35  1  0
 15 36  1  1
 16 37  1  0
 17 38  1  1
 18 39  1  0
M  END
