
     RDKit          3D

 66 67  0  0  0  0  0  0  0  0999 V2000
   -2.7555   -3.8945    1.3746 C   0  0  0  0  0  0  0  0  0  0  0  0
   -3.5341   -2.8559    0.5190 C   0  0  0  0  0  0  0  0  0  0  0  0
   -4.9527   -2.8095    1.1388 C   0  0  0  0  0  0  0  0  0  0  0  0
   -3.6107   -3.4201   -0.9158 C   0  0  0  0  0  0  0  0  0  0  0  0
   -2.8509   -1.4637    0.4873 C   0  0  0  0  0  0  0  0  0  0  0  0
   -1.4851   -1.3518    0.8097 C   0  0  0  0  0  0  0  0  0  0  0  0
   -0.8292   -0.1168    0.8642 C   0  0  0  0  0  0  0  0  0  0  0  0
    0.6398   -0.0373    1.2141 C   0  0  0  0  0  0  0  0  0  0  0  0
    1.4625   -0.2132    0.0150 N   0  0  0  0  0  0  0  0  0  0  0  0
    2.8973    0.0230    0.2835 C   0  0  1  0  0  0  0  0  0  0  0  0
    3.6687   -0.6137   -0.8874 C   0  0  0  0  0  0  0  0  0  0  0  0
    5.1897   -0.3762   -0.8048 C   0  0  2  0  0  0  0  0  0  0  0  0
    5.7988   -0.8022   -2.0514 O   0  0  0  0  0  0  0  0  0  0  0  0
    5.8364   -1.2497    0.2877 C   0  0  0  0  0  0  0  0  0  0  0  0
    7.2440   -1.0013    0.3441 O   0  0  0  0  0  0  0  0  0  0  0  0
    5.5059    1.1303   -0.6414 C   0  0  1  0  0  0  0  0  0  0  0  0
    5.1318    1.8064   -1.8631 O   0  0  0  0  0  0  0  0  0  0  0  0
    4.7470    1.7823    0.5267 C   0  0  2  0  0  0  0  0  0  0  0  0
    5.2106    1.3080    1.7868 O   0  0  0  0  0  0  0  0  0  0  0  0
    3.2288    1.5372    0.4102 C   0  0  1  0  0  0  0  0  0  0  0  0
    2.6734    2.2506   -0.7077 O   0  0  0  0  0  0  0  0  0  0  0  0
   -1.5417    1.0492    0.5604 C   0  0  0  0  0  0  0  0  0  0  0  0
   -2.8988    1.0189    0.2020 C   0  0  0  0  0  0  0  0  0  0  0  0
   -3.6576    2.3290   -0.1244 C   0  0  0  0  0  0  0  0  0  0  0  0
   -2.7925    3.6087    0.0390 C   0  0  0  0  0  0  0  0  0  0  0  0
   -4.8618    2.5072    0.8288 C   0  0  0  0  0  0  0  0  0  0  0  0
   -4.1415    2.3250   -1.5923 C   0  0  0  0  0  0  0  0  0  0  0  0
   -3.5154   -0.2572    0.1495 C   0  0  0  0  0  0  0  0  0  0  0  0
   -4.8149   -0.2931   -0.2777 O   0  0  0  0  0  0  0  0  0  0  0  0
   -3.3062   -4.8401    1.4516 H   0  0  0  0  0  0  0  0  0  0  0  0
   -2.5921   -3.5256    2.3937 H   0  0  0  0  0  0  0  0  0  0  0  0
   -1.7834   -4.1473    0.9380 H   0  0  0  0  0  0  0  0  0  0  0  0
   -5.3321   -3.8180    1.3415 H   0  0  0  0  0  0  0  0  0  0  0  0
   -4.9547   -2.2621    2.0875 H   0  0  0  0  0  0  0  0  0  0  0  0
   -5.6939   -2.3502    0.4804 H   0  0  0  0  0  0  0  0  0  0  0  0
   -2.6149   -3.4865   -1.3688 H   0  0  0  0  0  0  0  0  0  0  0  0
   -4.0421   -4.4282   -0.9185 H   0  0  0  0  0  0  0  0  0  0  0  0
   -4.2264   -2.8034   -1.5761 H   0  0  0  0  0  0  0  0  0  0  0  0
   -0.8849   -2.2308    1.0276 H   0  0  0  0  0  0  0  0  0  0  0  0
    0.8277    0.9320    1.6947 H   0  0  0  0  0  0  0  0  0  0  0  0
    0.8795   -0.8082    1.9591 H   0  0  0  0  0  0  0  0  0  0  0  0
    1.1634    0.4975   -0.6632 H   0  0  0  0  0  0  0  0  0  0  0  0
    3.1850   -0.4949    1.2060 H   0  0  0  0  0  0  0  0  0  0  0  0
    3.2890   -0.2176   -1.8418 H   0  0  0  0  0  0  0  0  0  0  0  0
    3.4674   -1.6940   -0.9336 H   0  0  0  0  0  0  0  0  0  0  0  0
    5.1966   -0.5265   -2.7672 H   0  0  0  0  0  0  0  0  0  0  0  0
    5.7109   -2.3122    0.0519 H   0  0  0  0  0  0  0  0  0  0  0  0
    5.4193   -1.0794    1.2813 H   0  0  0  0  0  0  0  0  0  0  0  0
    7.5809   -1.2450   -0.5396 H   0  0  0  0  0  0  0  0  0  0  0  0
    6.5846    1.2871   -0.5151 H   0  0  0  0  0  0  0  0  0  0  0  0
    5.8871    1.6774   -2.4725 H   0  0  0  0  0  0  0  0  0  0  0  0
    4.9185    2.8640    0.4933 H   0  0  0  0  0  0  0  0  0  0  0  0
    6.1774    1.4398    1.8299 H   0  0  0  0  0  0  0  0  0  0  0  0
    2.7440    1.9344    1.3092 H   0  0  0  0  0  0  0  0  0  0  0  0
    3.3282    2.2047   -1.4344 H   0  0  0  0  0  0  0  0  0  0  0  0
   -0.9966    1.9879    0.6035 H   0  0  0  0  0  0  0  0  0  0  0  0
   -2.4229    3.7205    1.0652 H   0  0  0  0  0  0  0  0  0  0  0  0
   -3.3738    4.5109   -0.1881 H   0  0  0  0  0  0  0  0  0  0  0  0
   -1.9329    3.6035   -0.6404 H   0  0  0  0  0  0  0  0  0  0  0  0
   -5.3564    3.4723    0.6632 H   0  0  0  0  0  0  0  0  0  0  0  0
   -5.6287    1.7397    0.6968 H   0  0  0  0  0  0  0  0  0  0  0  0
   -4.5381    2.4742    1.8767 H   0  0  0  0  0  0  0  0  0  0  0  0
   -3.3072    2.1566   -2.2835 H   0  0  0  0  0  0  0  0  0  0  0  0
   -4.8924    1.5554   -1.7931 H   0  0  0  0  0  0  0  0  0  0  0  0
   -4.6019    3.2845   -1.8570 H   0  0  0  0  0  0  0  0  0  0  0  0
   -4.8701   -0.9921   -0.9471 H   0  0  0  0  0  0  0  0  0  0  0  0
  1  2  1  0
  2  3  1  0
  2  4  1  0
  2  5  1  0
  5  6  1  0
  6  7  2  0
  7  8  1  0
  8  9  1  0
  9 10  1  0
 10 11  1  0
 11 12  1  0
 12 13  1  6
 12 14  1  0
 14 15  1  0
 12 16  1  0
 16 17  1  0
 16 18  1  0
 18 19  1  0
 18 20  1  0
 20 21  1  0
  7 22  1  0
 22 23  2  0
 23 24  1  0
 24 25  1  0
 24 26  1  0
 24 27  1  0
 23 28  1  0
 28 29  1  0
 28  5  2  0
 20 10  1  0
  1 30  1  0
  1 31  1  0
  1 32  1  0
  3 33  1  0
  3 34  1  0
  3 35  1  0
  4 36  1  0
  4 37  1  0
  4 38  1  0
  6 39  1  0
  8 40  1  0
  8 41  1  0
  9 42  1  0
 10 43  1  1
 11 44  1  0
 11 45  1  0
 13 46  1  0
 14 47  1  0
 14 48  1  0
 15 49  1  0
 16 50  1  1
 17 51  1  0
 18 52  1  1
 19 53  1  0
 20 54  1  1
 21 55  1  0
 22 56  1  0
 25 57  1  0
 25 58  1  0
 25 59  1  0
 26 60  1  0
 26 61  1  0
 26 62  1  0
 27 63  1  0
 27 64  1  0
 27 65  1  0
 29 66  1  0
M  END
