
     RDKit          3D

 50 51  0  0  0  0  0  0  0  0999 V2000
   -1.6023   -2.0464   -2.4568 C   0  0  0  0  0  0  0  0  0  0  0  0
   -2.2595   -0.9506   -1.6106 C   0  0  1  0  0  0  0  0  0  0  0  0
   -2.6991   -1.5170   -0.2432 C   0  0  0  0  0  0  0  0  0  0  0  0
   -3.3898   -0.4646    0.6251 C   0  0  2  0  0  0  0  0  0  0  0  0
   -4.6671   -0.1352    0.0552 O   0  0  0  0  0  0  0  0  0  0  0  0
   -2.5808    0.8351    0.7376 C   0  0  2  0  0  0  0  0  0  0  0  0
   -3.3842    1.8472    1.3742 O   0  0  0  0  0  0  0  0  0  0  0  0
   -2.1660    1.3632   -0.6438 C   0  0  1  0  0  0  0  0  0  0  0  0
   -1.4562    2.5996   -0.5011 O   0  0  0  0  0  0  0  0  0  0  0  0
   -1.3614    0.3114   -1.4532 C   0  0  1  0  0  0  0  0  0  0  0  0
   -0.0550   -0.1011   -0.8972 N   0  0  0  0  0  0  0  0  0  0  0  0
    1.0008    0.9340   -0.9284 C   0  0  1  0  0  0  0  0  0  0  0  0
    1.3208    1.5095    0.4697 C   0  0  0  0  0  0  0  0  0  0  0  0
    1.9506    0.4862    1.4295 C   0  0  2  0  0  0  0  0  0  0  0  0
    0.9847   -0.5589    1.6792 O   0  0  0  0  0  0  0  0  0  0  0  0
    2.2784    1.1313    2.7923 C   0  0  0  0  0  0  0  0  0  0  0  0
    2.6979    0.1353    3.7305 O   0  0  0  0  0  0  0  0  0  0  0  0
    3.2131   -0.1286    0.7864 C   0  0  1  0  0  0  0  0  0  0  0  0
    3.7845   -1.1308    1.6483 O   0  0  0  0  0  0  0  0  0  0  0  0
    2.9039   -0.7520   -0.5760 C   0  0  2  0  0  0  0  0  0  0  0  0
    4.1374   -1.2372   -1.1390 O   0  0  0  0  0  0  0  0  0  0  0  0
    2.2732    0.2780   -1.5224 C   0  0  1  0  0  0  0  0  0  0  0  0
    1.9529   -0.3919   -2.7540 O   0  0  0  0  0  0  0  0  0  0  0  0
   -2.3145   -2.8548   -2.6546 H   0  0  0  0  0  0  0  0  0  0  0  0
   -0.7348   -2.4874   -1.9548 H   0  0  0  0  0  0  0  0  0  0  0  0
   -1.2751   -1.6477   -3.4223 H   0  0  0  0  0  0  0  0  0  0  0  0
   -3.1643   -0.6426   -2.1541 H   0  0  0  0  0  0  0  0  0  0  0  0
   -3.3872   -2.3544   -0.4145 H   0  0  0  0  0  0  0  0  0  0  0  0
   -1.8337   -1.9203    0.2955 H   0  0  0  0  0  0  0  0  0  0  0  0
   -3.5913   -0.8608    1.6264 H   0  0  0  0  0  0  0  0  0  0  0  0
   -5.1958   -0.9539    0.0404 H   0  0  0  0  0  0  0  0  0  0  0  0
   -1.7011    0.6895    1.3724 H   0  0  0  0  0  0  0  0  0  0  0  0
   -4.2916    1.6931    1.0364 H   0  0  0  0  0  0  0  0  0  0  0  0
   -3.0678    1.6247   -1.2127 H   0  0  0  0  0  0  0  0  0  0  0  0
   -1.9390    3.0833    0.2002 H   0  0  0  0  0  0  0  0  0  0  0  0
   -1.1758    0.7194   -2.4556 H   0  0  0  0  0  0  0  0  0  0  0  0
   -0.1462   -0.4338    0.0718 H   0  0  0  0  0  0  0  0  0  0  0  0
    0.7074    1.7461   -1.6044 H   0  0  0  0  0  0  0  0  0  0  0  0
    0.4090    1.9084    0.9235 H   0  0  0  0  0  0  0  0  0  0  0  0
    2.0055    2.3584    0.3451 H   0  0  0  0  0  0  0  0  0  0  0  0
    1.3478   -1.0514    2.4470 H   0  0  0  0  0  0  0  0  0  0  0  0
    1.3875    1.6047    3.2185 H   0  0  0  0  0  0  0  0  0  0  0  0
    3.0661    1.8868    2.7056 H   0  0  0  0  0  0  0  0  0  0  0  0
    3.3798   -0.4107    3.2790 H   0  0  0  0  0  0  0  0  0  0  0  0
    3.9863    0.6412    0.6678 H   0  0  0  0  0  0  0  0  0  0  0  0
    4.3976   -1.6307    1.0663 H   0  0  0  0  0  0  0  0  0  0  0  0
    2.2680   -1.6384   -0.4676 H   0  0  0  0  0  0  0  0  0  0  0  0
    3.9305   -1.4003   -2.0833 H   0  0  0  0  0  0  0  0  0  0  0  0
    3.0102    1.0495   -1.7749 H   0  0  0  0  0  0  0  0  0  0  0  0
    1.0459   -0.7345   -2.6012 H   0  0  0  0  0  0  0  0  0  0  0  0
  1  2  1  0
  2  3  1  0
  3  4  1  0
  4  5  1  0
  4  6  1  0
  6  7  1  0
  6  8  1  0
  8  9  1  0
  8 10  1  0
 10 11  1  0
 11 12  1  0
 12 13  1  0
 13 14  1  0
 14 15  1  1
 14 16  1  0
 16 17  1  0
 14 18  1  0
 18 19  1  0
 18 20  1  0
 20 21  1  0
 20 22  1  0
 22 23  1  0
 10  2  1  0
 22 12  1  0
  1 24  1  0
  1 25  1  0
  1 26  1  0
  2 27  1  6
  3 28  1  0
  3 29  1  0
  4 30  1  1
  5 31  1  0
  6 32  1  1
  7 33  1  0
  8 34  1  6
  9 35  1  0
 10 36  1  6
 11 37  1  0
 12 38  1  6
 13 39  1  0
 13 40  1  0
 15 41  1  0
 16 42  1  0
 16 43  1  0
 17 44  1  0
 18 45  1  6
 19 46  1  0
 20 47  1  1
 21 48  1  0
 22 49  1  6
 23 50  1  0
M  END
