
     RDKit          3D

 50 51  0  0  0  0  0  0  0  0999 V2000
   -2.5406   -1.7177    2.5062 C   0  0  0  0  0  0  0  0  0  0  0  0
   -2.8427   -0.8940    1.2509 C   0  0  1  0  0  0  0  0  0  0  0  0
   -3.2527    0.5423    1.6318 C   0  0  0  0  0  0  0  0  0  0  0  0
   -3.6250    1.3721    0.4037 C   0  0  1  0  0  0  0  0  0  0  0  0
   -3.8696    2.7219    0.7993 O   0  0  0  0  0  0  0  0  0  0  0  0
   -2.5456    1.3269   -0.6885 C   0  0  2  0  0  0  0  0  0  0  0  0
   -3.0268    1.9930   -1.8743 O   0  0  0  0  0  0  0  0  0  0  0  0
   -2.1859   -0.1231   -1.0397 C   0  0  1  0  0  0  0  0  0  0  0  0
   -1.2660   -0.1684   -2.1406 O   0  0  0  0  0  0  0  0  0  0  0  0
   -1.6786   -0.8961    0.2121 C   0  0  1  0  0  0  0  0  0  0  0  0
   -0.4634   -0.3541    0.8643 N   0  0  0  0  0  0  0  0  0  0  0  0
    0.7254   -0.1974    0.0012 C   0  0  1  0  0  0  0  0  0  0  0  0
    1.8326    0.4524    0.8558 C   0  0  0  0  0  0  0  0  0  0  0  0
    3.1430    0.6521    0.0668 C   0  0  2  0  0  0  0  0  0  0  0  0
    4.1550    1.0512    1.0275 O   0  0  0  0  0  0  0  0  0  0  0  0
    3.0492    1.8091   -0.9498 C   0  0  0  0  0  0  0  0  0  0  0  0
    2.8446    3.0459   -0.2606 O   0  0  0  0  0  0  0  0  0  0  0  0
    3.6097   -0.6698   -0.5907 C   0  0  1  0  0  0  0  0  0  0  0  0
    4.0182   -1.5634    0.4721 O   0  0  0  0  0  0  0  0  0  0  0  0
    2.5103   -1.3504   -1.4255 C   0  0  2  0  0  0  0  0  0  0  0  0
    2.2715   -0.6018   -2.6137 O   0  0  0  0  0  0  0  0  0  0  0  0
    1.2203   -1.5393   -0.6006 C   0  0  1  0  0  0  0  0  0  0  0  0
    1.4222   -2.5094    0.4409 O   0  0  0  0  0  0  0  0  0  0  0  0
   -1.7763   -1.2485    3.1339 H   0  0  0  0  0  0  0  0  0  0  0  0
   -2.1995   -2.7232    2.2390 H   0  0  0  0  0  0  0  0  0  0  0  0
   -3.4438   -1.8237    3.1172 H   0  0  0  0  0  0  0  0  0  0  0  0
   -3.7092   -1.3715    0.7709 H   0  0  0  0  0  0  0  0  0  0  0  0
   -4.1072    0.5209    2.3205 H   0  0  0  0  0  0  0  0  0  0  0  0
   -2.4483    1.0434    2.1859 H   0  0  0  0  0  0  0  0  0  0  0  0
   -4.5717    1.0015   -0.0083 H   0  0  0  0  0  0  0  0  0  0  0  0
   -3.7233    3.2808    0.0121 H   0  0  0  0  0  0  0  0  0  0  0  0
   -1.6577    1.8915   -0.3831 H   0  0  0  0  0  0  0  0  0  0  0  0
   -3.8825    1.5957   -2.1176 H   0  0  0  0  0  0  0  0  0  0  0  0
   -3.0865   -0.6236   -1.4188 H   0  0  0  0  0  0  0  0  0  0  0  0
   -1.4370    0.6489   -2.6526 H   0  0  0  0  0  0  0  0  0  0  0  0
   -1.4800   -1.9341   -0.0811 H   0  0  0  0  0  0  0  0  0  0  0  0
   -0.1969   -1.0097    1.6046 H   0  0  0  0  0  0  0  0  0  0  0  0
    0.4996    0.5120   -0.7980 H   0  0  0  0  0  0  0  0  0  0  0  0
    1.4861    1.4160    1.2534 H   0  0  0  0  0  0  0  0  0  0  0  0
    2.0351   -0.1572    1.7478 H   0  0  0  0  0  0  0  0  0  0  0  0
    4.3977    0.2279    1.4985 H   0  0  0  0  0  0  0  0  0  0  0  0
    2.2363    1.6915   -1.6684 H   0  0  0  0  0  0  0  0  0  0  0  0
    3.9887    1.9114   -1.5034 H   0  0  0  0  0  0  0  0  0  0  0  0
    3.4424    2.9986    0.5136 H   0  0  0  0  0  0  0  0  0  0  0  0
    4.4999   -0.4746   -1.2012 H   0  0  0  0  0  0  0  0  0  0  0  0
    4.5924   -2.2384    0.0597 H   0  0  0  0  0  0  0  0  0  0  0  0
    2.8726   -2.3412   -1.7266 H   0  0  0  0  0  0  0  0  0  0  0  0
    1.4576   -0.9462   -3.0300 H   0  0  0  0  0  0  0  0  0  0  0  0
    0.4513   -1.9513   -1.2616 H   0  0  0  0  0  0  0  0  0  0  0  0
    2.2550   -2.2790    0.9016 H   0  0  0  0  0  0  0  0  0  0  0  0
  1  2  1  0
  2  3  1  0
  3  4  1  0
  4  5  1  0
  4  6  1  0
  6  7  1  0
  6  8  1  0
  8  9  1  0
  8 10  1  0
 10 11  1  0
 11 12  1  0
 12 13  1  0
 13 14  1  0
 14 15  1  1
 14 16  1  0
 16 17  1  0
 14 18  1  0
 18 19  1  0
 18 20  1  0
 20 21  1  0
 20 22  1  0
 22 23  1  0
 10  2  1  0
 22 12  1  0
  1 24  1  0
  1 25  1  0
  1 26  1  0
  2 27  1  6
  3 28  1  0
  3 29  1  0
  4 30  1  6
  5 31  1  0
  6 32  1  1
  7 33  1  0
  8 34  1  6
  9 35  1  0
 10 36  1  6
 11 37  1  0
 12 38  1  6
 13 39  1  0
 13 40  1  0
 15 41  1  0
 16 42  1  0
 16 43  1  0
 17 44  1  0
 18 45  1  6
 19 46  1  0
 20 47  1  6
 21 48  1  0
 22 49  1  6
 23 50  1  0
M  END
