
     RDKit          3D

 44 43  0  0  0  0  0  0  0  0999 V2000
    3.1726    2.1584    2.1239 O   0  0  0  0  0  0  0  0  0  0  0  0
    2.5326    2.0633    0.8490 C   0  0  0  0  0  0  0  0  0  0  0  0
    2.3976    0.6060    0.4079 C   0  0  2  0  0  0  0  0  0  0  0  0
    3.7539   -0.0363    0.1177 C   0  0  1  0  0  0  0  0  0  0  0  0
    4.4693   -0.3014    1.3261 O   0  0  0  0  0  0  0  0  0  0  0  0
    3.4182   -1.3328   -0.6182 C   0  0  2  0  0  0  0  0  0  0  0  0
    4.6235   -1.9364   -1.0822 O   0  0  0  0  0  0  0  0  0  0  0  0
    2.5009   -0.9100   -1.7612 C   0  0  0  0  0  0  0  0  0  0  0  0
    1.4266    0.4501   -1.1565 S   0  0  0  0  0  0  0  0  0  0  0  0
    0.0882   -0.6035   -0.4425 C   0  0  0  0  0  0  0  0  0  0  0  0
   -1.0319   -0.8442   -1.4715 C   0  0  1  0  0  0  0  0  0  0  0  0
   -0.5878   -1.9454   -2.3076 O   0  0  0  0  0  0  0  0  0  0  0  0
   -2.3894   -1.2810   -0.8676 C   0  0  1  0  0  0  0  0  0  0  0  0
   -2.1572   -2.2773    0.1426 O   0  0  0  0  0  0  0  0  0  0  0  0
   -3.3472   -0.1827   -0.3509 C   0  0  2  0  0  0  0  0  0  0  0  0
   -3.8160    0.5901   -1.4655 O   0  0  0  0  0  0  0  0  0  0  0  0
   -2.7979    0.7589    0.7357 C   0  0  1  0  0  0  0  0  0  0  0  0
   -1.8908    1.6938    0.1417 O   0  0  0  0  0  0  0  0  0  0  0  0
   -3.9137    1.5719    1.4115 C   0  0  0  0  0  0  0  0  0  0  0  0
   -4.7171    2.2285    0.4229 O   0  0  0  0  0  0  0  0  0  0  0  0
    0.0000    0.0000    0.0000 Cl  0  0  0  0  0  0  0  0  0  0  0  0
    3.8671    1.4677    2.1536 H   0  0  0  0  0  0  0  0  0  0  0  0
    3.1148    2.6502    0.1290 H   0  0  0  0  0  0  0  0  0  0  0  0
    1.5485    2.5357    0.9383 H   0  0  0  0  0  0  0  0  0  0  0  0
    1.9053    0.0430    1.2115 H   0  0  0  0  0  0  0  0  0  0  0  0
    4.3908    0.6075   -0.5036 H   0  0  0  0  0  0  0  0  0  0  0  0
    5.1948   -0.9034    1.0624 H   0  0  0  0  0  0  0  0  0  0  0  0
    2.9293   -2.0456    0.0578 H   0  0  0  0  0  0  0  0  0  0  0  0
    4.3709   -2.7100   -1.6193 H   0  0  0  0  0  0  0  0  0  0  0  0
    1.9200   -1.7465   -2.1559 H   0  0  0  0  0  0  0  0  0  0  0  0
    3.0886   -0.5043   -2.5928 H   0  0  0  0  0  0  0  0  0  0  0  0
   -0.2758   -0.0621    0.4284 H   0  0  0  0  0  0  0  0  0  0  0  0
    0.5274   -1.5441   -0.0948 H   0  0  0  0  0  0  0  0  0  0  0  0
   -1.1766    0.0162   -2.1344 H   0  0  0  0  0  0  0  0  0  0  0  0
   -0.6532   -2.7412   -1.7473 H   0  0  0  0  0  0  0  0  0  0  0  0
   -2.9244   -1.8017   -1.6735 H   0  0  0  0  0  0  0  0  0  0  0  0
   -2.9952   -2.7599    0.2576 H   0  0  0  0  0  0  0  0  0  0  0  0
   -4.2203   -0.6989    0.0681 H   0  0  0  0  0  0  0  0  0  0  0  0
   -4.4155    1.2712   -1.0908 H   0  0  0  0  0  0  0  0  0  0  0  0
   -2.2610    0.1989    1.5057 H   0  0  0  0  0  0  0  0  0  0  0  0
   -2.3704    2.0974   -0.6112 H   0  0  0  0  0  0  0  0  0  0  0  0
   -4.5666    0.9227    2.0032 H   0  0  0  0  0  0  0  0  0  0  0  0
   -3.4820    2.3436    2.0580 H   0  0  0  0  0  0  0  0  0  0  0  0
   -5.2507    2.8936    0.8994 H   0  0  0  0  0  0  0  0  0  0  0  0
  1  2  1  0
  2  3  1  0
  3  4  1  0
  4  5  1  0
  4  6  1  0
  6  7  1  0
  6  8  1  0
  8  9  1  0
  9 10  1  1
 10 11  1  0
 11 12  1  0
 11 13  1  0
 13 14  1  0
 13 15  1  0
 15 16  1  0
 15 17  1  0
 17 18  1  0
 17 19  1  0
 19 20  1  0
  9  3  1  0
  1 22  1  0
  2 23  1  0
  2 24  1  0
  3 25  1  1
  4 26  1  6
  5 27  1  0
  6 28  1  1
  7 29  1  0
  8 30  1  0
  8 31  1  0
 10 32  1  0
 10 33  1  0
 11 34  1  6
 12 35  1  0
 13 36  1  6
 14 37  1  0
 15 38  1  1
 16 39  1  0
 17 40  1  1
 18 41  1  0
 19 42  1  0
 19 43  1  0
 20 44  1  0
M  CHG  2   9   1  21  -1
M  END
