
     RDKit          3D

 45 46  0  0  0  0  0  0  0  0999 V2000
   -1.9765    2.4428    2.5970 O   0  0  0  0  0  0  0  0  0  0  0  0
   -2.2687    1.0392    2.6033 C   0  0  0  0  0  0  0  0  0  0  0  0
   -2.8386    0.6460    1.2244 C   0  0  1  0  0  0  0  0  0  0  0  0
   -3.9762    1.5123    0.9788 O   0  0  0  0  0  0  0  0  0  0  0  0
   -1.8435    0.8842    0.0756 C   0  0  0  0  0  0  0  0  0  0  0  0
   -0.6511   -0.0871    0.1195 C   0  0  2  0  0  0  0  0  0  0  0  0
    0.1970    0.1905   -1.0679 N   0  0  0  0  0  0  0  0  0  0  0  0
    1.5668   -0.3617   -0.9871 C   0  0  2  0  0  0  0  0  0  0  0  0
    2.4142    0.4155    0.0450 C   0  0  0  0  0  0  0  0  0  0  0  0
    3.9071    0.2587   -0.2141 C   0  0  0  0  0  0  0  0  0  0  0  0
    4.3103    0.8238   -1.5764 C   0  0  0  0  0  0  0  0  0  0  0  0
    3.1704    0.8251   -2.5977 C   0  0  0  0  0  0  0  0  0  0  0  0
    2.2175   -0.3509   -2.4035 C   0  0  1  0  0  0  0  0  0  0  0  0
    2.9468   -1.5646   -2.6160 O   0  0  0  0  0  0  0  0  0  0  0  0
   -1.1389   -1.5611    0.1112 C   0  0  2  0  0  0  0  0  0  0  0  0
   -1.5865   -1.9085   -1.2026 O   0  0  0  0  0  0  0  0  0  0  0  0
   -2.2297   -1.8531    1.1628 C   0  0  1  0  0  0  0  0  0  0  0  0
   -1.6210   -1.9323    2.4608 O   0  0  0  0  0  0  0  0  0  0  0  0
   -3.3569   -0.8065    1.2017 C   0  0  2  0  0  0  0  0  0  0  0  0
   -4.2268   -0.9710    0.0715 O   0  0  0  0  0  0  0  0  0  0  0  0
   -1.6422    2.6601    3.4866 H   0  0  0  0  0  0  0  0  0  0  0  0
   -3.0150    0.8731    3.3874 H   0  0  0  0  0  0  0  0  0  0  0  0
   -1.3532    0.5043    2.8617 H   0  0  0  0  0  0  0  0  0  0  0  0
   -3.6695    2.4052    1.2417 H   0  0  0  0  0  0  0  0  0  0  0  0
   -2.3721    0.7949   -0.8845 H   0  0  0  0  0  0  0  0  0  0  0  0
   -1.4879    1.9230    0.1013 H   0  0  0  0  0  0  0  0  0  0  0  0
   -0.0897    0.1082    1.0387 H   0  0  0  0  0  0  0  0  0  0  0  0
    0.2614    1.2017   -1.2077 H   0  0  0  0  0  0  0  0  0  0  0  0
    1.5161   -1.4087   -0.6661 H   0  0  0  0  0  0  0  0  0  0  0  0
    2.1656    1.4851    0.0280 H   0  0  0  0  0  0  0  0  0  0  0  0
    2.1837    0.0594    1.0563 H   0  0  0  0  0  0  0  0  0  0  0  0
    4.1734   -0.8044   -0.1649 H   0  0  0  0  0  0  0  0  0  0  0  0
    4.4821    0.7584    0.5740 H   0  0  0  0  0  0  0  0  0  0  0  0
    4.6745    1.8520   -1.4584 H   0  0  0  0  0  0  0  0  0  0  0  0
    5.1590    0.2438   -1.9603 H   0  0  0  0  0  0  0  0  0  0  0  0
    2.6089    1.7642   -2.5166 H   0  0  0  0  0  0  0  0  0  0  0  0
    3.6053    0.7992   -3.6040 H   0  0  0  0  0  0  0  0  0  0  0  0
    1.4473   -0.3205   -3.1843 H   0  0  0  0  0  0  0  0  0  0  0  0
    2.2929   -2.2847   -2.6562 H   0  0  0  0  0  0  0  0  0  0  0  0
   -0.2835   -2.2132    0.3228 H   0  0  0  0  0  0  0  0  0  0  0  0
   -1.0999   -1.3059   -1.8024 H   0  0  0  0  0  0  0  0  0  0  0  0
   -2.6796   -2.8306    0.9458 H   0  0  0  0  0  0  0  0  0  0  0  0
   -1.1961   -2.8089    2.5106 H   0  0  0  0  0  0  0  0  0  0  0  0
   -3.9849   -0.9753    2.0857 H   0  0  0  0  0  0  0  0  0  0  0  0
   -4.7121   -0.1218    0.0047 H   0  0  0  0  0  0  0  0  0  0  0  0
  1  2  1  0
  2  3  1  0
  3  4  1  6
  3  5  1  0
  5  6  1  0
  6  7  1  0
  7  8  1  0
  8  9  1  0
  9 10  1  0
 10 11  1  0
 11 12  1  0
 12 13  1  0
 13 14  1  0
  6 15  1  0
 15 16  1  0
 15 17  1  0
 17 18  1  0
 17 19  1  0
 19 20  1  0
 19  3  1  0
 13  8  1  0
  1 21  1  0
  2 22  1  0
  2 23  1  0
  4 24  1  0
  5 25  1  0
  5 26  1  0
  6 27  1  1
  7 28  1  0
  8 29  1  1
  9 30  1  0
  9 31  1  0
 10 32  1  0
 10 33  1  0
 11 34  1  0
 11 35  1  0
 12 36  1  0
 12 37  1  0
 13 38  1  6
 14 39  1  0
 15 40  1  1
 16 41  1  0
 17 42  1  6
 18 43  1  0
 19 44  1  1
 20 45  1  0
M  END
