
     RDKit          3D

 44 43  0  0  0  0  0  0  0  0999 V2000
   -2.3457    3.0767    2.1867 O   0  0  0  0  0  0  0  0  0  0  0  0
   -1.8251    1.7492    2.1643 C   0  0  0  0  0  0  0  0  0  0  0  0
   -2.0841    1.0853    0.8123 C   0  0  2  0  0  0  0  0  0  0  0  0
   -3.5705    0.7913    0.5963 C   0  0  1  0  0  0  0  0  0  0  0  0
   -4.2950    1.9869    0.3127 O   0  0  0  0  0  0  0  0  0  0  0  0
   -3.6150   -0.1673   -0.5923 C   0  0  2  0  0  0  0  0  0  0  0  0
   -4.9489   -0.6425   -0.7636 O   0  0  0  0  0  0  0  0  0  0  0  0
   -2.6457   -1.2867   -0.2295 C   0  0  0  0  0  0  0  0  0  0  0  0
   -1.2205   -0.5444    0.6730 S   0  0  0  0  0  0  0  0  0  0  0  0
   -0.2218   -0.1127   -0.7912 C   0  0  0  0  0  0  0  0  0  0  0  0
    0.6283   -1.2826   -1.2949 C   0  0  1  0  0  0  0  0  0  0  0  0
    1.2722   -0.9153   -2.5273 O   0  0  0  0  0  0  0  0  0  0  0  0
    1.6742   -1.9077   -0.3334 C   0  0  1  0  0  0  0  0  0  0  0  0
    2.3407   -2.9580   -1.0710 O   0  0  0  0  0  0  0  0  0  0  0  0
    2.7809   -1.0340    0.3134 C   0  0  2  0  0  0  0  0  0  0  0  0
    2.3096   -0.2071    1.3900 O   0  0  0  0  0  0  0  0  0  0  0  0
    3.6207   -0.1970   -0.6761 C   0  0  1  0  0  0  0  0  0  0  0  0
    2.7957    0.8271   -1.2699 O   0  0  0  0  0  0  0  0  0  0  0  0
    4.8061    0.4950    0.0166 C   0  0  0  0  0  0  0  0  0  0  0  0
    4.3193    1.5187    0.8881 O   0  0  0  0  0  0  0  0  0  0  0  0
    0.0000    0.0000    0.0000 Cl  0  0  0  0  0  0  0  0  0  0  0  0
   -3.2126    3.0614    1.7277 H   0  0  0  0  0  0  0  0  0  0  0  0
   -0.7495    1.8154    2.3656 H   0  0  0  0  0  0  0  0  0  0  0  0
   -2.2800    1.1835    2.9861 H   0  0  0  0  0  0  0  0  0  0  0  0
   -1.7320    1.7607    0.0213 H   0  0  0  0  0  0  0  0  0  0  0  0
   -4.0311    0.3311    1.4815 H   0  0  0  0  0  0  0  0  0  0  0  0
   -5.1742    1.6814    0.0050 H   0  0  0  0  0  0  0  0  0  0  0  0
   -3.3227    0.3477   -1.5166 H   0  0  0  0  0  0  0  0  0  0  0  0
   -4.9452   -1.2761   -1.5031 H   0  0  0  0  0  0  0  0  0  0  0  0
   -2.3133   -1.8492   -1.1060 H   0  0  0  0  0  0  0  0  0  0  0  0
   -3.1174   -2.0020    0.4563 H   0  0  0  0  0  0  0  0  0  0  0  0
   -0.8772    0.2378   -1.5972 H   0  0  0  0  0  0  0  0  0  0  0  0
    0.4066    0.7429   -0.5284 H   0  0  0  0  0  0  0  0  0  0  0  0
   -0.0473   -2.0973   -1.5842 H   0  0  0  0  0  0  0  0  0  0  0  0
    1.7892   -0.0963   -2.3437 H   0  0  0  0  0  0  0  0  0  0  0  0
    1.1324   -2.4007    0.4823 H   0  0  0  0  0  0  0  0  0  0  0  0
    2.2699   -2.7102   -2.0181 H   0  0  0  0  0  0  0  0  0  0  0  0
    3.4839   -1.7337    0.7876 H   0  0  0  0  0  0  0  0  0  0  0  0
    1.3924    0.0761    1.1980 H   0  0  0  0  0  0  0  0  0  0  0  0
    3.9976   -0.8357   -1.4821 H   0  0  0  0  0  0  0  0  0  0  0  0
    2.9736    1.6344   -0.7350 H   0  0  0  0  0  0  0  0  0  0  0  0
    5.4213   -0.2073    0.5875 H   0  0  0  0  0  0  0  0  0  0  0  0
    5.4365    0.9912   -0.7274 H   0  0  0  0  0  0  0  0  0  0  0  0
    3.7237    1.0699    1.5258 H   0  0  0  0  0  0  0  0  0  0  0  0
  1  2  1  0
  2  3  1  0
  3  4  1  0
  4  5  1  0
  4  6  1  0
  6  7  1  0
  6  8  1  0
  8  9  1  0
  9 10  1  6
 10 11  1  0
 11 12  1  0
 11 13  1  0
 13 14  1  0
 13 15  1  0
 15 16  1  0
 15 17  1  0
 17 18  1  0
 17 19  1  0
 19 20  1  0
  9  3  1  0
  1 22  1  0
  2 23  1  0
  2 24  1  0
  3 25  1  6
  4 26  1  1
  5 27  1  0
  6 28  1  6
  7 29  1  0
  8 30  1  0
  8 31  1  0
 10 32  1  0
 10 33  1  0
 11 34  1  6
 12 35  1  0
 13 36  1  1
 14 37  1  0
 15 38  1  1
 16 39  1  0
 17 40  1  6
 18 41  1  0
 19 42  1  0
 19 43  1  0
 20 44  1  0
M  CHG  2   9   1  21  -1
M  END
