
     RDKit          3D

 45 46  0  0  0  0  0  0  0  0999 V2000
   -3.6405    2.4031   -1.2599 O   0  0  0  0  0  0  0  0  0  0  0  0
   -2.9862    1.2898   -1.8568 C   0  0  0  0  0  0  0  0  0  0  0  0
   -2.4988    0.2621   -0.8077 C   0  0  1  0  0  0  0  0  0  0  0  0
   -1.8194   -0.7869   -1.5204 O   0  0  0  0  0  0  0  0  0  0  0  0
   -1.4884    0.9152    0.1529 C   0  0  0  0  0  0  0  0  0  0  0  0
   -0.9031   -0.0430    1.2219 C   0  0  2  0  0  0  0  0  0  0  0  0
    0.2965   -0.8137    0.8568 N   0  0  0  0  0  0  0  0  0  0  0  0
    1.3620   -0.0742    0.1723 C   0  0  0  0  0  0  0  0  0  0  0  0
    2.6529   -0.9306    0.1498 C   0  0  2  0  0  0  0  0  0  0  0  0
    2.9823   -1.3046    1.4912 O   0  0  0  0  0  0  0  0  0  0  0  0
    3.8079   -0.1891   -0.4828 C   0  0  0  0  0  0  0  0  0  0  0  0
    4.1868   -0.4698   -1.8041 C   0  0  0  0  0  0  0  0  0  0  0  0
    5.2313    0.2328   -2.4085 C   0  0  0  0  0  0  0  0  0  0  0  0
    5.9057    1.2271   -1.7018 C   0  0  0  0  0  0  0  0  0  0  0  0
    5.5395    1.5175   -0.3895 C   0  0  0  0  0  0  0  0  0  0  0  0
    4.4980    0.8134    0.2165 C   0  0  0  0  0  0  0  0  0  0  0  0
   -1.9787   -1.0431    1.7490 C   0  0  2  0  0  0  0  0  0  0  0  0
   -1.8464   -2.3338    1.1178 O   0  0  0  0  0  0  0  0  0  0  0  0
   -3.3919   -0.5213    1.4977 C   0  0  2  0  0  0  0  0  0  0  0  0
   -4.3626   -1.4342    2.0453 O   0  0  0  0  0  0  0  0  0  0  0  0
   -3.6830   -0.3723   -0.0111 C   0  0  1  0  0  0  0  0  0  0  0  0
   -4.8993    0.4014   -0.1130 O   0  0  0  0  0  0  0  0  0  0  0  0
   -4.4203    2.0181   -0.8011 H   0  0  0  0  0  0  0  0  0  0  0  0
   -2.1405    1.6695   -2.4421 H   0  0  0  0  0  0  0  0  0  0  0  0
   -3.6658    0.8187   -2.5751 H   0  0  0  0  0  0  0  0  0  0  0  0
   -1.0812   -0.3883   -2.0131 H   0  0  0  0  0  0  0  0  0  0  0  0
   -0.6844    1.3962   -0.4135 H   0  0  0  0  0  0  0  0  0  0  0  0
   -1.9872    1.7401    0.6809 H   0  0  0  0  0  0  0  0  0  0  0  0
   -0.6194    0.5989    2.0659 H   0  0  0  0  0  0  0  0  0  0  0  0
   -0.0161   -1.6226    0.3027 H   0  0  0  0  0  0  0  0  0  0  0  0
    1.0754    0.1796   -0.8537 H   0  0  0  0  0  0  0  0  0  0  0  0
    1.5565    0.8522    0.7234 H   0  0  0  0  0  0  0  0  0  0  0  0
    2.4658   -1.8630   -0.3971 H   0  0  0  0  0  0  0  0  0  0  0  0
    2.1124   -1.4734    1.9053 H   0  0  0  0  0  0  0  0  0  0  0  0
    3.6746   -1.2446   -2.3711 H   0  0  0  0  0  0  0  0  0  0  0  0
    5.5223   -0.0002   -3.4303 H   0  0  0  0  0  0  0  0  0  0  0  0
    6.7201    1.7723   -2.1714 H   0  0  0  0  0  0  0  0  0  0  0  0
    6.0677    2.2885    0.1653 H   0  0  0  0  0  0  0  0  0  0  0  0
    4.2283    1.0401    1.2463 H   0  0  0  0  0  0  0  0  0  0  0  0
   -1.8193   -1.2243    2.8190 H   0  0  0  0  0  0  0  0  0  0  0  0
   -2.6667   -2.8264    1.3150 H   0  0  0  0  0  0  0  0  0  0  0  0
   -3.5492    0.4356    2.0083 H   0  0  0  0  0  0  0  0  0  0  0  0
   -4.2462   -1.4327    3.0134 H   0  0  0  0  0  0  0  0  0  0  0  0
   -3.9235   -1.3538   -0.4431 H   0  0  0  0  0  0  0  0  0  0  0  0
   -5.5679   -0.1264    0.3693 H   0  0  0  0  0  0  0  0  0  0  0  0
  1  2  1  0
  2  3  1  0
  3  4  1  6
  3  5  1  0
  5  6  1  0
  6  7  1  0
  7  8  1  0
  8  9  1  0
  9 10  1  0
  9 11  1  0
 11 12  2  0
 12 13  1  0
 13 14  2  0
 14 15  1  0
 15 16  2  0
  6 17  1  0
 17 18  1  0
 17 19  1  0
 19 20  1  0
 19 21  1  0
 21 22  1  0
 21  3  1  0
 16 11  1  0
  1 23  1  0
  2 24  1  0
  2 25  1  0
  4 26  1  0
  5 27  1  0
  5 28  1  0
  6 29  1  1
  7 30  1  0
  8 31  1  0
  8 32  1  0
  9 33  1  6
 10 34  1  0
 12 35  1  0
 13 36  1  0
 14 37  1  0
 15 38  1  0
 16 39  1  0
 17 40  1  1
 18 41  1  0
 19 42  1  1
 20 43  1  0
 21 44  1  6
 22 45  1  0
M  END
