
     RDKit          3D

 36 36  0  0  0  0  0  0  0  0999 V2000
    5.0991    3.2498   -0.2916 C   0  0  0  0  0  0  0  0  0  0  0  0
    4.2595    2.3078   -0.9607 O   0  0  0  0  0  0  0  0  0  0  0  0
    3.4848    1.5618   -0.1201 C   0  0  0  0  0  0  0  0  0  0  0  0
    3.4886    1.6498    1.1020 O   0  0  0  0  0  0  0  0  0  0  0  0
    2.6331    0.5966   -0.9324 C   0  0  0  0  0  0  0  0  0  0  0  0
    1.7290   -0.1243   -0.0380 N   0  0  0  0  0  0  0  0  0  0  0  0
    0.5185    0.4860    0.2582 C   0  0  0  0  0  0  0  0  0  0  0  0
    0.2209    1.5842   -0.2137 O   0  0  0  0  0  0  0  0  0  0  0  0
   -0.4324   -0.2641    1.1511 C   0  0  0  0  0  0  0  0  0  0  0  0
   -0.0255   -1.3935    1.7624 C   0  0  0  0  0  0  0  0  0  0  0  0
   -1.0477   -2.3148    2.8644 S   0  0  0  0  0  0  0  0  0  0  0  0
   -1.8038   -3.4731    1.6982 C   0  0  0  0  0  0  0  0  0  0  0  0
    1.3586   -1.9463    1.5999 C   0  0  0  0  0  0  0  0  0  0  0  0
    2.2166   -1.2740    0.5541 C   0  0  0  0  0  0  0  0  0  0  0  0
    3.3171   -1.7517    0.2669 O   0  0  0  0  0  0  0  0  0  0  0  0
   -2.0120    0.4562    1.3649 S   0  0  0  0  0  0  0  0  0  0  0  0
   -2.7035    0.2183   -0.3024 C   0  0  0  0  0  0  0  0  0  0  0  0
   -4.1395    0.7222   -0.3444 C   0  0  0  0  0  0  0  0  0  0  0  0
   -4.7228    0.4965   -1.7094 C   0  0  0  0  0  0  0  0  0  0  0  0
   -4.2313   -0.1422   -2.6243 O   0  0  0  0  0  0  0  0  0  0  0  0
   -5.9295    1.0783   -1.8475 O   0  0  0  0  0  0  0  0  0  0  0  0
    5.6667    3.7959   -1.0500 H   0  0  0  0  0  0  0  0  0  0  0  0
    5.8060    2.7334    0.3653 H   0  0  0  0  0  0  0  0  0  0  0  0
    4.4961    3.9677    0.2733 H   0  0  0  0  0  0  0  0  0  0  0  0
    3.2948   -0.1023   -1.4538 H   0  0  0  0  0  0  0  0  0  0  0  0
    2.0591    1.1645   -1.6719 H   0  0  0  0  0  0  0  0  0  0  0  0
   -1.0370   -4.0783    1.2067 H   0  0  0  0  0  0  0  0  0  0  0  0
   -2.3825   -2.9384    0.9409 H   0  0  0  0  0  0  0  0  0  0  0  0
   -2.4774   -4.1412    2.2414 H   0  0  0  0  0  0  0  0  0  0  0  0
    1.3017   -3.0044    1.3150 H   0  0  0  0  0  0  0  0  0  0  0  0
    1.8976   -1.8748    2.5527 H   0  0  0  0  0  0  0  0  0  0  0  0
   -2.6650   -0.8476   -0.5535 H   0  0  0  0  0  0  0  0  0  0  0  0
   -2.0984    0.7540   -1.0411 H   0  0  0  0  0  0  0  0  0  0  0  0
   -4.1714    1.7972   -0.1315 H   0  0  0  0  0  0  0  0  0  0  0  0
   -4.7635    0.1874    0.3805 H   0  0  0  0  0  0  0  0  0  0  0  0
   -6.2046    0.8631   -2.7634 H   0  0  0  0  0  0  0  0  0  0  0  0
  1  2  1  0
  2  3  1  0
  3  4  2  0
  3  5  1  0
  5  6  1  0
  6  7  1  0
  7  8  2  0
  7  9  1  0
  9 10  2  0
 10 11  1  0
 11 12  1  0
 10 13  1  0
 13 14  1  0
 14 15  2  0
  9 16  1  0
 16 17  1  0
 17 18  1  0
 18 19  1  0
 19 20  2  0
 19 21  1  0
 14  6  1  0
  1 22  1  0
  1 23  1  0
  1 24  1  0
  5 25  1  0
  5 26  1  0
 12 27  1  0
 12 28  1  0
 12 29  1  0
 13 30  1  0
 13 31  1  0
 17 32  1  0
 17 33  1  0
 18 34  1  0
 18 35  1  0
 21 36  1  0
M  END
