
     RDKit          3D

 44 46  0  0  0  0  0  0  0  0999 V2000
    3.8100   -1.0958   -2.8585 C   0  0  0  0  0  0  0  0  0  0  0  0
    4.3672   -0.4895   -1.5981 C   0  0  0  0  0  0  0  0  0  0  0  0
    5.4742   -1.1085   -0.9869 C   0  0  0  0  0  0  0  0  0  0  0  0
    6.0393   -0.5883    0.1777 C   0  0  0  0  0  0  0  0  0  0  0  0
    5.5047    0.5577    0.7573 C   0  0  0  0  0  0  0  0  0  0  0  0
    4.4016    1.1802    0.1745 C   0  0  0  0  0  0  0  0  0  0  0  0
    3.8157    0.6684   -1.0035 C   0  0  0  0  0  0  0  0  0  0  0  0
    2.6044    1.3866   -1.5594 C   0  0  0  0  0  0  0  0  0  0  0  0
    1.4103    1.3093   -0.6238 C   0  0  0  0  0  0  0  0  0  0  0  0
    1.0128    2.2722    0.0302 O   0  0  0  0  0  0  0  0  0  0  0  0
    0.8037    0.0715   -0.5739 N   0  0  0  0  0  0  0  0  0  0  0  0
   -0.2602   -0.2361    0.4249 C   0  0  1  0  0  0  0  0  0  0  0  0
   -1.5157    0.6703    0.4508 C   0  0  2  0  0  0  0  0  0  0  0  0
   -2.2407    0.9682    2.1114 S   0  0  0  0  0  0  0  0  0  0  0  0
   -3.8999    0.3462    1.5518 C   0  0  0  0  0  0  0  0  0  0  0  0
   -4.6731   -0.1358    2.7819 C   0  0  0  0  0  0  0  0  0  0  0  0
   -4.6396    1.5135    0.8826 C   0  0  0  0  0  0  0  0  0  0  0  0
   -3.5440   -0.8134    0.5981 C   0  0  1  0  0  0  0  0  0  0  0  0
   -4.6798   -1.1694   -0.3584 C   0  0  0  0  0  0  0  0  0  0  0  0
   -5.7913   -1.5518   -0.0192 O   0  0  0  0  0  0  0  0  0  0  0  0
   -4.3974   -1.0136   -1.6678 O   0  0  0  0  0  0  0  0  0  0  0  0
   -2.2990   -0.4611   -0.0825 N   0  0  0  0  0  0  0  0  0  0  0  0
   -1.2501   -1.3381   -0.0306 C   0  0  0  0  0  0  0  0  0  0  0  0
   -1.2077   -2.5355   -0.2002 O   0  0  0  0  0  0  0  0  0  0  0  0
    3.8154   -0.3691   -3.6773 H   0  0  0  0  0  0  0  0  0  0  0  0
    4.4057   -1.9544   -3.1860 H   0  0  0  0  0  0  0  0  0  0  0  0
    2.7879   -1.4504   -2.6971 H   0  0  0  0  0  0  0  0  0  0  0  0
    5.9117   -2.0081   -1.4222 H   0  0  0  0  0  0  0  0  0  0  0  0
    6.8977   -1.0781    0.6319 H   0  0  0  0  0  0  0  0  0  0  0  0
    5.9423    0.9678    1.6652 H   0  0  0  0  0  0  0  0  0  0  0  0
    3.9929    2.0756    0.6510 H   0  0  0  0  0  0  0  0  0  0  0  0
    2.3005    0.9971   -2.5353 H   0  0  0  0  0  0  0  0  0  0  0  0
    2.8526    2.4405   -1.7222 H   0  0  0  0  0  0  0  0  0  0  0  0
    1.3127   -0.7099   -0.9820 H   0  0  0  0  0  0  0  0  0  0  0  0
    0.1893   -0.4536    1.4027 H   0  0  0  0  0  0  0  0  0  0  0  0
   -1.5321    1.5289   -0.2267 H   0  0  0  0  0  0  0  0  0  0  0  0
   -5.6569   -0.5254    2.4978 H   0  0  0  0  0  0  0  0  0  0  0  0
   -4.1441   -0.9410    3.3066 H   0  0  0  0  0  0  0  0  0  0  0  0
   -4.8420    0.6783    3.4980 H   0  0  0  0  0  0  0  0  0  0  0  0
   -5.6521    1.2196    0.5840 H   0  0  0  0  0  0  0  0  0  0  0  0
   -4.1264    1.8716   -0.0153 H   0  0  0  0  0  0  0  0  0  0  0  0
   -4.7494    2.3608    1.5681 H   0  0  0  0  0  0  0  0  0  0  0  0
   -3.3508   -1.7325    1.1707 H   0  0  0  0  0  0  0  0  0  0  0  0
   -5.2004   -1.3250   -2.1281 H   0  0  0  0  0  0  0  0  0  0  0  0
  1  2  1  0
  2  3  2  0
  3  4  1  0
  4  5  2  0
  5  6  1  0
  6  7  2  0
  7  8  1  0
  8  9  1  0
  9 10  2  0
  9 11  1  0
 11 12  1  0
 12 13  1  0
 13 14  1  0
 14 15  1  0
 15 16  1  0
 15 17  1  0
 15 18  1  0
 18 19  1  0
 19 20  2  0
 19 21  1  0
 18 22  1  0
 22 23  1  0
 23 24  2  0
  7  2  1  0
 23 12  1  0
 22 13  1  0
  1 25  1  0
  1 26  1  0
  1 27  1  0
  3 28  1  0
  4 29  1  0
  5 30  1  0
  6 31  1  0
  8 32  1  0
  8 33  1  0
 11 34  1  0
 12 35  1  1
 13 36  1  6
 16 37  1  0
 16 38  1  0
 16 39  1  0
 17 40  1  0
 17 41  1  0
 17 42  1  0
 18 43  1  1
 21 44  1  0
M  END
