
     RDKit          3D

 40 42  0  0  0  0  0  0  0  0999 V2000
   -4.6725    1.5963    0.3228 C   0  0  0  0  0  0  0  0  0  0  0  0
   -4.0387    0.2610    0.4147 C   0  0  0  0  0  0  0  0  0  0  0  0
   -2.8615   -0.1537   -0.1797 C   0  0  0  0  0  0  0  0  0  0  0  0
   -1.9140    0.5228   -1.0317 C   0  0  0  0  0  0  0  0  0  0  0  0
   -2.0321    1.6902   -1.4002 O   0  0  0  0  0  0  0  0  0  0  0  0
   -0.8313   -0.2380   -1.4206 N   0  0  0  0  0  0  0  0  0  0  0  0
    0.2653    0.3402   -2.2337 C   0  0  1  0  0  0  0  0  0  0  0  0
    1.2132    1.3574   -1.5455 C   0  0  1  0  0  0  0  0  0  0  0  0
    1.3407    1.2803    0.2966 S   0  0  0  0  0  0  0  0  0  0  0  0
    2.8945    0.2446    0.3070 C   0  0  0  0  0  0  0  0  0  0  0  0
    3.8272    0.8468    1.3677 C   0  0  0  0  0  0  0  0  0  0  0  0
    2.4905   -1.1758    0.7221 C   0  0  0  0  0  0  0  0  0  0  0  0
    3.4669    0.4096   -1.1169 C   0  0  1  0  0  0  0  0  0  0  0  0
    4.5262   -0.5768   -1.6136 C   0  0  0  0  0  0  0  0  0  0  0  0
    4.8083   -0.8094   -2.7797 O   0  0  0  0  0  0  0  0  0  0  0  0
    5.2747   -1.1273   -0.6392 O   0  0  0  0  0  0  0  0  0  0  0  0
    2.3466    0.5520   -2.0440 N   0  0  0  0  0  0  0  0  0  0  0  0
    1.5438   -0.5147   -2.3571 C   0  0  0  0  0  0  0  0  0  0  0  0
    1.7930   -1.6871   -2.5136 O   0  0  0  0  0  0  0  0  0  0  0  0
   -2.6289   -1.4534    0.1578 O   0  0  0  0  0  0  0  0  0  0  0  0
   -3.6412   -1.9145    0.9726 N   0  0  0  0  0  0  0  0  0  0  0  0
   -4.4837   -0.8867    1.1257 C   0  0  0  0  0  0  0  0  0  0  0  0
   -5.7001   -1.0409    1.9581 C   0  0  0  0  0  0  0  0  0  0  0  0
   -3.9994    2.3681    0.7098 H   0  0  0  0  0  0  0  0  0  0  0  0
   -5.6009    1.6419    0.9001 H   0  0  0  0  0  0  0  0  0  0  0  0
   -4.9132    1.8360   -0.7180 H   0  0  0  0  0  0  0  0  0  0  0  0
   -0.7683   -1.1900   -1.0715 H   0  0  0  0  0  0  0  0  0  0  0  0
   -0.1031    0.6623   -3.2160 H   0  0  0  0  0  0  0  0  0  0  0  0
    1.1949    2.3697   -1.9594 H   0  0  0  0  0  0  0  0  0  0  0  0
    4.7609    0.2799    1.4425 H   0  0  0  0  0  0  0  0  0  0  0  0
    4.0952    1.8842    1.1356 H   0  0  0  0  0  0  0  0  0  0  0  0
    3.3680    0.8362    2.3636 H   0  0  0  0  0  0  0  0  0  0  0  0
    1.7547   -1.6275    0.0526 H   0  0  0  0  0  0  0  0  0  0  0  0
    2.0523   -1.1832    1.7281 H   0  0  0  0  0  0  0  0  0  0  0  0
    3.3536   -1.8471    0.7583 H   0  0  0  0  0  0  0  0  0  0  0  0
    3.9792    1.3824   -1.1694 H   0  0  0  0  0  0  0  0  0  0  0  0
    5.9000   -1.7028   -1.1321 H   0  0  0  0  0  0  0  0  0  0  0  0
   -5.6862   -0.3280    2.7887 H   0  0  0  0  0  0  0  0  0  0  0  0
   -5.7771   -2.0485    2.3797 H   0  0  0  0  0  0  0  0  0  0  0  0
   -6.5976   -0.8565    1.3592 H   0  0  0  0  0  0  0  0  0  0  0  0
  1  2  1  0
  2  3  2  0
  3  4  1  0
  4  5  2  0
  4  6  1  0
  6  7  1  0
  7  8  1  0
  8  9  1  0
  9 10  1  0
 10 11  1  0
 10 12  1  0
 10 13  1  0
 13 14  1  0
 14 15  2  0
 14 16  1  0
 13 17  1  0
 17 18  1  0
 18 19  2  0
  3 20  1  0
 20 21  1  0
 21 22  2  0
 22 23  1  0
 22  2  1  0
 18  7  1  0
 17  8  1  0
  1 24  1  0
  1 25  1  0
  1 26  1  0
  6 27  1  0
  7 28  1  6
  8 29  1  6
 11 30  1  0
 11 31  1  0
 11 32  1  0
 12 33  1  0
 12 34  1  0
 12 35  1  0
 13 36  1  1
 16 37  1  0
 23 38  1  0
 23 39  1  0
 23 40  1  0
M  END
