
     RDKit          3D

 43 45  0  0  0  0  0  0  0  0999 V2000
    2.4174   -1.3326    0.2075 C   0  0  1  0  0  0  0  0  0  0  0  0
    1.8784   -1.1562    1.5730 N   0  0  0  0  0  0  0  0  0  0  0  0
    1.4774   -0.7328   -0.8699 C   0  0  0  0  0  0  0  0  0  0  0  0
    1.4972   -1.0821   -2.0495 O   0  0  0  0  0  0  0  0  0  0  0  0
    0.6131    0.2511   -0.4318 N   0  0  0  0  0  0  0  0  0  0  0  0
   -0.3948    0.8468   -1.3444 C   0  0  1  0  0  0  0  0  0  0  0  0
   -1.6241   -0.0241   -1.7155 C   0  0  1  0  0  0  0  0  0  0  0  0
   -2.0796   -1.3734   -0.5327 S   0  0  0  0  0  0  0  0  0  0  0  0
   -3.4191   -0.3914    0.3223 C   0  0  0  0  0  0  0  0  0  0  0  0
   -4.6288   -1.3243    0.4773 C   0  0  0  0  0  0  0  0  0  0  0  0
   -2.8826   -0.0081    1.7074 C   0  0  0  0  0  0  0  0  0  0  0  0
   -3.7168    0.7733   -0.6461 C   0  0  1  0  0  0  0  0  0  0  0  0
   -4.4696    1.9992   -0.1242 C   0  0  0  0  0  0  0  0  0  0  0  0
   -4.4516    3.1211   -0.6077 O   0  0  0  0  0  0  0  0  0  0  0  0
   -5.3126    1.7406    0.8936 O   0  0  0  0  0  0  0  0  0  0  0  0
   -2.4763    1.1210   -1.3345 N   0  0  0  0  0  0  0  0  0  0  0  0
   -1.4511    1.7574   -0.6837 C   0  0  0  0  0  0  0  0  0  0  0  0
   -1.4475    2.5974    0.1857 O   0  0  0  0  0  0  0  0  0  0  0  0
    3.8384   -0.8049    0.1361 C   0  0  0  0  0  0  0  0  0  0  0  0
    4.1332    0.5213   -0.2202 C   0  0  0  0  0  0  0  0  0  0  0  0
    5.4542    0.9759   -0.2456 C   0  0  0  0  0  0  0  0  0  0  0  0
    6.4970    0.1180    0.0956 C   0  0  0  0  0  0  0  0  0  0  0  0
    6.2214   -1.1950    0.4676 C   0  0  0  0  0  0  0  0  0  0  0  0
    4.9023   -1.6515    0.4926 C   0  0  0  0  0  0  0  0  0  0  0  0
    2.4252   -2.4116    0.0047 H   0  0  0  0  0  0  0  0  0  0  0  0
    0.8905   -1.3985    1.5898 H   0  0  0  0  0  0  0  0  0  0  0  0
    2.0126   -0.1997    1.8869 H   0  0  0  0  0  0  0  0  0  0  0  0
    0.6235    0.5021    0.5490 H   0  0  0  0  0  0  0  0  0  0  0  0
    0.0872    1.3375   -2.1993 H   0  0  0  0  0  0  0  0  0  0  0  0
   -1.7123   -0.2913   -2.7723 H   0  0  0  0  0  0  0  0  0  0  0  0
   -4.3819   -2.2121    1.0719 H   0  0  0  0  0  0  0  0  0  0  0  0
   -5.4555   -0.8199    0.9879 H   0  0  0  0  0  0  0  0  0  0  0  0
   -5.0076   -1.6677   -0.4925 H   0  0  0  0  0  0  0  0  0  0  0  0
   -2.6586   -0.9008    2.3049 H   0  0  0  0  0  0  0  0  0  0  0  0
   -3.6158    0.5681    2.2796 H   0  0  0  0  0  0  0  0  0  0  0  0
   -1.9650    0.5834    1.6649 H   0  0  0  0  0  0  0  0  0  0  0  0
   -4.3676    0.3949   -1.4491 H   0  0  0  0  0  0  0  0  0  0  0  0
   -5.7228    2.6147    1.0755 H   0  0  0  0  0  0  0  0  0  0  0  0
    3.3443    1.2196   -0.4884 H   0  0  0  0  0  0  0  0  0  0  0  0
    5.6692    2.0023   -0.5323 H   0  0  0  0  0  0  0  0  0  0  0  0
    7.5237    0.4736    0.0753 H   0  0  0  0  0  0  0  0  0  0  0  0
    7.0322   -1.8645    0.7425 H   0  0  0  0  0  0  0  0  0  0  0  0
    4.7036   -2.6766    0.7997 H   0  0  0  0  0  0  0  0  0  0  0  0
  1  2  1  0
  1  3  1  0
  3  4  2  0
  3  5  1  0
  5  6  1  0
  6  7  1  0
  7  8  1  0
  8  9  1  0
  9 10  1  0
  9 11  1  0
  9 12  1  0
 12 13  1  0
 13 14  2  0
 13 15  1  0
 12 16  1  0
 16 17  1  0
 17 18  2  0
  1 19  1  0
 19 20  2  0
 20 21  1  0
 21 22  2  0
 22 23  1  0
 23 24  2  0
 17  6  1  0
 16  7  1  0
 24 19  1  0
  1 25  1  6
  2 26  1  0
  2 27  1  0
  5 28  1  0
  6 29  1  6
  7 30  1  6
 10 31  1  0
 10 32  1  0
 10 33  1  0
 11 34  1  0
 11 35  1  0
 11 36  1  0
 12 37  1  6
 15 38  1  0
 20 39  1  0
 21 40  1  0
 22 41  1  0
 23 42  1  0
 24 43  1  0
M  END
